         762
 CSIRO Nanostructure Databank - Neutral Graphene Oxide Data Set
C         22.78772        24.70092         1.84409
C         21.60458        25.31986         1.44600
C         22.83800        27.35003         0.89584
C         21.62607        26.63518         0.99405
C         22.85058        28.74947         0.49545
C         21.66351        29.38951         0.08829
C         22.83645        31.48586        -0.23174
C         21.66315        30.71834        -0.30652
C         22.86300        32.85472        -0.82649
C         21.63830        33.62023        -1.11273
C         22.86388        35.75890        -1.30989
C         21.66421        34.96045        -1.36275
C         22.82702        37.19838        -1.45534
C         21.59242        37.91340        -1.51209
C         22.76528        40.06152        -1.57537
C         21.56937        39.28606        -1.55832
C         22.70590        41.48952        -1.54099
C         21.52821        42.25413        -1.43088
C         22.69572        44.43200        -1.43589
C         21.52038        43.65694        -1.48691
C         22.74209        45.86012        -1.42150
C         21.55463        46.62937        -1.54401
C         22.81148        48.70382        -1.38049
C         21.59203        48.01056        -1.52013
C         25.23846        23.68512         3.06027
C         25.24686        24.75920         2.20101
C         24.01268        25.38328         1.75364
C         25.32362        27.40573         1.10328
C         24.05717        26.70719         1.23932
C         25.32117        28.80037         0.79922
C         24.06153        29.49434         0.54774
C         25.25129        31.68890         0.46066
C         24.02113        30.88627         0.25226
C         25.21828        33.19931         0.20238
C         24.12458        33.65434        -0.73919
C         25.29426        35.82686        -0.90820
C         24.08671        35.12212        -0.97003
C         25.34582        37.19832        -1.53324
C         24.03145        37.94100        -1.48640
C         25.28003        40.07642        -1.63836
C         24.02802        39.35813        -1.57603
C         25.26061        41.51971        -1.92092
C         23.94935        42.25027        -1.77603
C         25.23288        44.40860        -1.05925
C         23.95402        43.66988        -1.28841
C         25.20005        45.88310        -1.05838
C         24.00236        46.57173        -1.25792
C         25.29246        48.73956        -1.14352
C         24.01900        48.02223        -1.25681
C         25.36462        50.13733        -1.32932
C         27.65291        23.71617         3.26232
C         26.44375        23.20272         3.64396
C         27.83061        24.66737         2.15741
C         26.51985        25.30713         1.68747
C         27.80725        27.39609         1.15838
C         26.55646        26.72587         1.27396
C         27.80382        28.78408         0.81170
C         26.56035        29.46189         0.66614
C         27.80349        31.60782         0.13640
C         26.54797        30.93977         0.57812
C         27.79106        33.05782        -0.22771
C         26.53048        33.82879        -0.22034
C         27.83979        35.82332        -1.02384
C         26.53337        35.14373        -0.62321
C         27.78415        37.32561        -0.72386
C         26.49807        38.02822        -1.00734
C         27.77015        40.13437        -1.45956
C         26.51588        39.45751        -1.37903
C         27.80837        41.55780        -1.59585
C         26.54887        42.28922        -1.80531
C         27.78353        44.38021        -0.97045
C         26.53398        43.75715        -1.41518
C         27.73346        45.77673        -0.50169
C         26.43147        46.58091        -0.66470
C         27.72437        48.74342        -0.77586
C         26.49821        48.04629        -0.85253
C         27.76790        50.15106        -0.92392
C         26.56404        50.82591        -1.20506
C         30.64152        20.43076         2.98371
C         29.68758        21.26346         3.57759
C         30.45201        23.25324         2.31739
C         29.66373        22.64709         3.28551
C         30.35876        24.66809         1.94247
C         29.12336        25.38354         1.91733
C         30.30197        27.41201         1.16690
C         29.07347        26.71412         1.41513
C         30.27493        28.79091         0.77616
C         29.06445        29.48881         0.65310
C         30.24922        31.66398         0.44741
C         29.08796        30.92300         0.43328
C         30.22189        33.14558         0.43917
C         29.04303        33.83546        -0.09752
C         30.31545        35.90846        -0.35668
C         29.06650        35.17707        -0.38691
C         30.30201        37.37370        -0.60371
C         29.03634        38.07935        -0.90657
C         30.26771        40.09948        -1.69733
C         29.01221        39.39775        -1.31833
C         30.28022        41.61131        -1.69487
C         28.99520        42.30122        -1.46718
C         30.26451        44.39556        -0.99342
C         28.98787        43.70143        -1.16906
C         30.26003        45.76641        -0.84397
C         29.03082        46.52486        -0.50850
C         30.21994        48.74186        -1.20757
C         29.01960        48.03144        -0.59085
C         30.26496        50.21016        -0.80877
C         29.03587        50.88325        -0.74367
C         30.21020        52.96440        -0.25241
C         29.03283        52.27505        -0.46191
C         32.82794        18.87483         1.58300
C         32.82550        20.22723         1.84401
C         31.64277        20.98068         2.18749
C         32.87558        23.19446         1.96885
C         31.56304        22.41528         1.71156
C         32.80897        24.54510         1.21904
C         31.54540        25.33275         1.51131
C         32.82040        27.42540         1.00498
C         31.55105        26.71156         1.22906
C         32.82594        28.81485         0.73675
C         31.54418        29.47654         0.45626
C         32.82624        31.73727         0.55526
C         31.55396        30.99938         0.34062
C         32.82982        33.16072         0.45203
C         31.54504        33.90024         0.39940
C         32.82334        35.87340        -0.51165
C         31.52088        35.26651        -0.13311
C         32.86841        37.29989        -0.96960
C         31.59288        38.07453        -0.86186
C         32.89440        40.10437        -1.71486
C         31.58471        39.37750        -1.58336
C         32.85003        41.62211        -1.99485
C         31.56390        42.31775        -1.47621
C         32.77478        44.44083        -1.14616
C         31.51844        43.64033        -1.11685
C         32.79690        45.81050        -0.53796
C         31.50038        46.54158        -0.59452
C         32.80955        48.74389        -0.74403
C         31.53253        47.99882        -0.95250
C         32.75446        50.21791        -0.55556
C         31.49436        50.91052        -0.60594
C         32.70476        53.03169        -0.08969
C         31.46973        52.31348        -0.30792
C         32.74581        54.37410         0.45819
C         35.27800        18.71181         1.41443
C         34.03053        18.13567         1.34660
C         35.38092        20.15681         1.74851
C         34.12773        20.95514         2.12174
C         35.28988        23.05857         1.29187
C         34.13685        22.40356         1.64707
C         35.32573        24.55175         1.30415
C         34.07203        25.33749         1.45462
C         35.29180        27.45595         0.88223
C         34.06470        26.76653         1.08653
C         35.29102        28.87074         0.73358
C         34.03406        29.55755         0.67096
C         35.28985        31.70113         0.88232
C         34.02005        30.99939         0.64049
C         35.28410        33.24436         0.77067
C         34.03020        33.89774         0.39399
C         35.29369        35.97471        -0.11556
C         34.08152        35.25292        -0.04798
C         35.31530        37.37872        -0.49059
C         34.13221        38.07065        -0.87542
C         35.35533        40.17894        -1.13184
C         34.13781        39.44825        -1.18961
C         35.36292        41.62939        -1.42969
C         34.13151        42.30741        -1.57590
C         35.36021        44.54279        -1.49530
C         34.07488        43.76740        -1.50271
C         35.41860        45.86279        -0.77088
C         34.10728        46.54365        -0.37202
C         35.00703        48.76196         0.32532
C         33.99896        48.02649        -0.20663
C         35.15382        50.25583         0.31582
C         33.92718        50.91700        -0.28788
C         35.20429        53.05222        -0.15779
C         33.91720        52.33433        -0.18911
C         35.21365        54.46383         0.37384
C         33.90795        54.99081         0.80771
C         37.77618        15.79251         1.07508
C         36.60737        16.62646         1.42824
C         37.69746        18.69192         0.61738
C         36.50446        17.95319         1.11918
C         37.74261        20.16122         0.75613
C         36.59308        20.90321         1.28252
C         37.69430        23.00405         0.62982
C         36.54599        22.36005         1.05114
C         37.68574        24.46166         0.36769
C         36.47630        25.26192         0.68374
C         37.73159        27.40943         0.49451
C         36.54186        26.74543         0.76556
C         37.76579        28.84857         0.46076
C         36.53882        29.56754         0.60541
C         37.78294        31.68902         0.59688
C         36.57203        30.99156         0.66061
C         37.78701        33.16959         0.74755
C         36.54672        33.94674         0.53886
C         37.79675        36.04459         0.11710
C         36.54697        35.29329         0.18013
C         37.74652        37.44939        -0.03024
C         36.53298        38.12491        -0.40124
C         37.75308        40.34048        -0.49228
C         36.52845        39.51888        -0.71025
C         37.86261        41.61928        -1.27193
C         36.59801        42.32188        -1.56676
C         37.93967        44.55604        -1.77330
C         36.63603        43.78310        -1.80616
C         37.90384        46.03071        -1.46450
C         36.68313        46.64051        -0.87378
C         37.96856        48.73383        -0.41388
C         36.89480        47.77513        -0.13264
C         37.81512        50.11797        -0.33715
C         36.48753        50.78932        -0.30349
C         37.78322        53.00120         0.00006
C         36.50299        52.30070        -0.31490
C         37.70658        54.28851         0.66753
C         36.51550        54.98874         0.87169
C         37.67866        56.95004         1.77283
C         36.53175        56.32720         1.38852
C         40.46503        14.38586         0.48543
C         40.36816        15.78590         0.41962
C         39.02649        16.44847         0.55116
C         40.30470        18.64692         0.81562
C         38.99937        17.95081         0.44971
C         40.18192        20.16114         0.66385
C         38.92283        20.85071         0.55374
C         40.15577        22.98758         0.25734
C         38.95485        22.30291         0.48843
C         40.10226        24.38745        -0.32730
C         38.99935        25.16935         0.34118
C         40.21480        27.33118        -0.23788
C         39.01011        26.65399         0.34812
C         40.21056        28.84713        -0.14009
C         38.98751        29.55260         0.30241
C         40.26224        31.65127         0.16160
C         39.02383        30.97424         0.39532
C         40.22248        33.10517        -0.05579
C         39.07710        33.90294         0.45932
C         40.29226        36.01025         0.01284
C         39.04810        35.34810         0.15454
C         40.28584        37.47071         0.21449
C         38.97473        38.21630         0.23871
C         40.33400        40.38416        -0.10670
C         39.01207        39.69893         0.01750
C         40.23371        41.90428        -0.19721
C         39.18643        42.33253        -1.28106
C         40.50503        44.52993        -1.44222
C         39.23539        43.78904        -1.67466
C         40.45231        45.96665        -1.01849
C         39.16092        46.67966        -0.96037
C         40.41203        48.87808        -0.84356
C         39.19619        48.14425        -0.80846
C         40.34606        50.25900        -0.66214
C         39.01155        50.96832        -0.77704
C         40.27289        53.03401         0.10738
C         39.00414        52.35868        -0.16280
C         40.26327        54.30553         0.73526
C         38.96657        54.82339         1.22467
C         40.21207        56.96474         1.96572
C         38.93779        56.21405         1.86144
C         40.19380        58.22293         2.58342
C         42.71800        14.47337        -0.39797
C         41.64244        13.74205         0.10319
C         42.65852        15.87809        -0.47711
C         41.48400        16.53303        -0.01817
C         42.82858        18.62374         0.08584
C         41.43098        18.04763        -0.09853
C         43.08476        19.85621         0.66415
C         41.24417        20.96804         0.97391
C         42.67631        22.91287         0.31390
C         41.41579        22.33023         0.50913
C         42.73093        24.31502        -0.21260
C         41.45459        25.10321        -0.36661
C         42.72345        27.28074        -0.26051
C         41.50388        26.59057        -0.25038
C         42.71550        28.76538        -0.62542
C         41.49556        29.53408        -0.14233
C         42.75505        31.62928        -0.23509
C         41.50019        30.93767        -0.04610
C         42.77748        33.09928        -0.39278
C         41.50113        33.87527        -0.34758
C         42.78062        35.98436         0.19530
C         41.52978        35.31864        -0.06151
C         42.80883        37.47082         0.11125
C         41.53772        38.23258        -0.05304
C         42.82853        40.38951         0.13838
C         41.52282        39.71851         0.04294
C         42.78790        41.87207         0.12353
C         41.61474        42.53987        -0.47709
C         42.99376        44.53879        -1.19384
C         41.69966        43.80374        -0.94551
C         42.91671        46.00436        -0.72423
C         41.68930        46.76984        -0.96063
C         42.93379        48.90040        -0.87076
C         41.68663        48.15316        -0.91006
C         42.88797        50.37648        -1.04471
C         41.55928        51.08093        -0.80277
C         42.72931        53.16309        -0.04808
C         41.52659        52.46023        -0.25820
C         42.68476        54.50005         0.42871
C         41.46014        55.06254         0.88144
C         42.59417        57.20243         1.58011
C         41.42115        56.41128         1.47150
C         42.54976        58.46461         2.19219
C         41.36046        58.97190         2.70650
C         44.90119        16.07872        -1.64283
C         43.81625        16.64973        -0.97122
C         45.11972        18.77273        -0.82825
C         43.90840        18.03545        -0.63004
C         45.18603        20.14994        -0.43018
C         44.10917        20.72119         0.25668
C         45.27684        22.92778         0.40686
C         43.98601        22.18654         0.54787
C         45.28579        24.39537         0.08573
C         44.01000        25.11322        -0.17512
C         45.22343        27.30330        -0.08647
C         43.97478        26.60170        -0.13308
C         45.24744        28.76098        -0.23913
C         44.01716        29.48772        -0.35220
C         45.24622        31.66285        -0.38341
C         43.97389        30.90151        -0.31671
C         45.25160        33.03921         0.23296
C         44.04175        33.86617        -0.04636
C         45.22945        35.98309         0.76065
C         43.98231        35.29763         0.31009
C         45.29834        37.49682         0.75397
C         44.01784        38.23973         0.52890
C         45.33891        40.37182         0.49294
C         44.01548        39.70605         0.29195
C         45.39042        41.88028         0.37199
C         44.11758        42.64565         0.15308
C         45.47138        44.57137        -0.72410
C         44.19403        43.89604        -0.56801
C         45.48430        46.09355        -0.79194
C         44.18376        46.78980        -0.57959
C         45.41444        48.97128        -0.55212
C         44.15052        48.25707        -0.72264
C         45.37217        50.36309        -0.41980
C         44.22273        51.13921        -1.01494
C         45.28985        53.25933         0.02727
C         44.05032        52.68698        -0.65827
C         45.24967        54.67461         0.31385
C         43.92356        55.32834         0.38327
C         45.13604        57.31022         1.46306
C         43.87096        56.73103         0.99188
C         46.06176        16.81914        -1.92397
C         47.49041        18.86422        -1.61299
C         46.22327        18.14458        -1.49219
C         47.63426        20.14436        -0.88837
C         46.42062        20.90342        -0.51475
C         47.78195        22.92470        -0.01193
C         46.49506        22.19063        -0.04898
C         47.77580        24.41486         0.28315
C         46.47650        25.18024         0.60378
C         47.70227        27.29660         0.13312
C         46.45106        26.61732         0.11713
C         47.72134        28.74495         0.09265
C         46.49060        29.43727        -0.15911
C         47.79271        31.60989         0.03234
C         46.55605        30.89860        -0.32934
C         47.80006        33.12194        -0.06050
C         46.53366        33.73003         0.55052
C         47.81423        35.99736         0.85309
C         46.51475        35.21710         0.87450
C         47.77191        37.43648         0.44250
C         46.60095        38.17174         0.46005
C         47.79792        40.31690         0.03905
C         46.60925        39.61482         0.26264
C         47.86045        41.76759         0.00046
C         46.66637        42.52670         0.00686
C         47.91264        44.63150        -0.20641
C         46.70458        43.89846        -0.30006
C         47.90726        46.08845        -0.24226
C         46.70789        46.83419        -0.44792
C         47.95685        49.00343        -0.46949
C         46.65314        48.24189        -0.41413
C         47.87766        50.42341         0.05086
C         46.51872        51.07481         0.24716
C         47.74579        53.33952         0.12785
C         46.48488        52.57517         0.06764
C         47.70998        54.75191         0.52481
C         46.41059        55.38257         0.64683
C         46.32208        56.70319         1.22369
C         49.81474        19.10176        -2.40337
C         48.59223        18.37690        -2.28873
C         50.00530        20.34965        -1.84221
C         48.94103        20.91915        -1.00452
C         50.09146        23.12406        -0.96315
C         48.95373        22.36315        -0.71280
C         50.09898        24.53316        -0.63988
C         48.96098        25.17582        -0.14541
C         50.21733        27.25491         0.27289
C         48.92521        26.58685         0.06059
C         50.21764        28.76818         0.48765
C         48.93141        29.44476         0.25554
C         50.19634        31.54047         0.60901
C         48.96075        30.87932         0.25677
C         50.00092        32.89391         1.03313
C         48.99050        33.72047         0.62617
C         50.32879        35.89269         0.26303
C         49.08772        35.21046         0.79712
C         50.30125        37.33766        -0.12952
C         48.99005        38.07186        -0.10694
C         50.37188        40.24734        -0.66072
C         49.01033        39.56488        -0.35818
C         50.36814        41.76335        -0.40989
C         49.09017        42.46761        -0.11576
C         50.35341        44.58177         0.31212
C         49.10577        43.87434        -0.03274
C         50.33241        46.07163         0.38345
C         49.10303        46.81298         0.02599
C         50.35719        48.90425         0.33396
C         49.13450        48.20495         0.03787
C         50.38193        50.40878         0.08922
C         49.03367        51.09991         0.26473
C         50.22631        53.32866         0.81011
C         49.07970        52.58978         0.26717
C         50.14236        54.70042         0.90670
C         48.91438        55.40265         0.74780
C         52.42195        20.48200        -2.36618
C         51.24011        21.11548        -1.93308
C         52.54115        23.14892        -1.50336
C         51.29316        22.47243        -1.49844
C         52.59895        24.61817        -1.28524
C         51.30283        25.34753        -0.91452
C         52.64788        27.35766        -0.27649
C         51.44032        26.65980        -0.27060
C         52.69897        28.76474         0.10545
C         51.49824        29.48781         0.32801
C         52.76316        31.58849         0.50215
C         51.48856        30.90567         0.50675
C         52.84984        33.08070         0.20736
C         51.83057        33.98469         0.83295
C         52.81910        35.89714        -0.34405
C         51.66210        35.25251         0.38330
C         52.80221        37.39181        -0.08699
C         51.59377        38.09231        -0.07954
C         52.79505        40.21017         0.12909
C         51.59242        39.53502        -0.05513
C         52.97544        41.70343        -0.10362
C         51.67016        42.48337        -0.17914
C         52.81074        44.56537         0.58268
C         51.66478        43.89626         0.27392
C         52.79019        46.02814         0.83483
C         51.64895        46.77273         0.15207
C         52.82498        48.95301         0.66620
C         51.54560        48.22632         0.51107
C         52.69202        50.30918         1.27919
C         51.41084        51.06123         1.02157
C         52.64498        53.16404         1.73637
C         51.36401        52.53036         1.34492
C         53.64683        21.12360        -2.27505
C         55.05050        23.08057        -1.57661
C         53.72540        22.45266        -1.82460
C         55.10996        24.53968        -1.09645
C         53.85375        25.31366        -0.99996
C         55.12895        27.38828        -0.57232
C         53.87740        26.67582        -0.66441
C         55.17843        28.71993        -0.15632
C         53.95723        29.44763         0.14377
C         55.27272        31.58358         0.41874
C         53.95674        30.86464         0.35052
C         55.34416        33.03262         0.21976
C         54.14826        33.81087         0.59113
C         55.30517        35.92483        -0.02996
C         54.11926        35.22151         0.04079
C         55.28145        37.37352        -0.04936
C         54.04783        38.07672         0.01560
C         55.25976        40.18499         0.39495
C         54.04198        39.49429         0.23490
C         55.27639        41.51932         1.10574
C         53.99973        42.32922         0.85372
C         55.33567        44.54622         1.06135
C         54.03581        43.81846         0.97043
C         55.36148        45.95979         1.14772
C         54.08541        46.73806         1.08921
C         55.35250        48.96688         1.26489
C         54.12489        48.22133         0.80361
C         55.21264        50.30893         1.88155
C         53.88564        51.00495         1.86471
C         53.78725        52.48053         1.96395
C         57.41898        23.24768        -2.21250
C         56.25495        22.54878        -2.22092
C         57.47733        24.61985        -1.77341
C         56.35942        25.27449        -1.32067
C         57.67012        27.19806        -0.37899
C         56.39893        26.77829        -1.14915
C         57.67377        28.71606        -0.25522
C         56.48988        29.38111        -0.08789
C         57.84110        31.54059         0.11523
C         56.54784        30.81147         0.28746
C         57.80481        33.01543         0.31194
C         56.58093        33.73284        -0.22548
C         57.75279        35.95443         0.03985
C         56.57078        35.22910         0.03059
C         57.74141        37.38635        -0.09906
C         56.50457        38.08366        -0.05785
C         57.67554        40.24634        -0.05954
C         56.49267        39.52108         0.11997
C         57.79476        41.65535         0.35733
C         56.57123        42.34287         0.92329
C         57.77858        44.53373         0.78549
C         56.54632        43.83183         0.90865
C         57.80461        45.92191         1.10127
C         56.59811        46.63299         1.30219
C         57.51028        48.73172         2.53120
C         56.60202        48.12498         1.54427
C         57.38662        50.02178         2.96314
C         56.24854        50.81883         2.61560
C         59.65059        25.14027        -3.03136
C         58.77844        25.34580        -1.86630
C         60.03040        27.53651        -1.49168
C         58.92060        26.63863        -1.09480
C         60.21791        28.76211        -0.68404
C         58.98257        29.39522        -0.06463
C         60.36647        31.57832         0.31241
C         59.02131        30.87079         0.09947
C         60.31932        33.06635        -0.03459
C         59.10376        33.79022         0.30200
C         60.30113        36.01565        -0.31846
C         59.06323        35.28274         0.16469
C         60.16909        37.46297        -0.65923
C         58.94170        38.09862        -0.43104
C         60.08044        40.37223        -0.96635
C         58.82132        39.55289        -0.65572
C         60.05642        41.84502        -0.69938
C         58.94100        42.47270        -0.09726
C         60.14012        44.58973        -0.06780
C         58.96770        43.85359         0.23961
C         60.32410        45.96827         0.46117
C         59.12982        46.62705         1.13837
C         60.76731        47.89286         2.54301
C         59.48462        47.52820         2.25064
C         60.66850        25.99941        -3.29477
C         60.88242        27.17886        -2.50004
C         61.40831        29.62339        -0.88095
C         61.49657        30.86499        -0.38710
C         61.36668        33.77843        -0.65314
C         61.37148        35.15569        -0.83405
C         61.34621        38.24866        -0.87632
C         61.33176        39.61967        -0.92040
C         61.15974        42.62384        -1.07170
C         61.19812        43.97801        -0.75308
C         61.67842        46.33692         0.91277
C         61.87456        47.30278         1.84660
O         48.68786        38.62747        -1.44077
O         38.27678        18.37122        -0.73332
O         45.71914        35.48012         2.05785
O         26.63650        43.33637        -2.81866
O         24.53665        43.77018         0.07228
O         53.69217        48.70446        -0.51301
O         55.21915        23.42088        -0.15648
O         35.83325        44.40143        -2.86145
O         39.36425        25.86632         1.56127
O         51.77684        25.32100        -2.29990
O         45.43224        41.23216         1.67830
O         32.86701        36.23388        -1.95810
O         56.02612        31.09788         1.64249
O         50.20778        45.31352         1.61166
O         39.65924        37.83947         1.48204
O         34.90390        45.78921         0.59502
O         58.38501        33.40784         1.56880
O         36.06800        48.10089         0.94081
O         56.45730        48.89016         0.30480
O         44.93187        24.66420        -1.28835
O         48.62111        53.09550        -1.02932
O         44.51316        37.99237         1.88841
O         45.98745        31.45650        -1.61994
O         59.15539        39.97894        -2.03028
O         29.23498        47.38159         0.68104
O         45.62158        45.31642        -2.01895
O         48.62644        35.75587         2.06665
O         32.44025        48.24839        -2.09175
O         36.43735        20.47583         2.72530
O         42.15410        24.55593        -1.55400
O         26.91020        37.73746         0.37585
O         38.67867        33.61601         1.83401
O         39.85314        42.45344         1.00402
O         43.22013        42.55771         1.32493
O         40.57660        33.50284        -1.42298
O         27.93550        35.70692        -2.43050
O         30.77853        33.75012         1.65706
O         59.89867        28.59416         0.74274
O         39.69817        46.04804         0.26337
O         35.22553        54.19924        -1.07619
O         59.58018        47.04927        -0.19341
O         38.10629        40.43191         0.91910
O         51.00797        33.46253         1.81884
O         27.22798        24.31022         0.86466
O         28.76381        23.41271         4.05083
O         50.27943        27.83420         1.61811
O         34.91077        25.06848         2.62937
O         45.82370        32.97601         1.57574
O         57.60194        41.83095         1.82022
O         42.09542        50.84990        -2.16294
O         51.07315        42.43529        -1.51673
O         50.19719        36.28820        -1.17004
O         36.74722        24.82377        -0.69985
O         52.95420        50.24411         2.72111
O         30.20341        40.83202        -2.95271
O         31.57752        30.13836        -0.85443
O         39.94461        28.09545        -1.44994
O         32.32896        39.32403        -2.82804
O         42.30519        37.83224        -1.23524
O         43.79362        56.52137        -0.45414
O         38.86119        41.45418        -2.37695
O         36.36778        51.53395        -1.57329
O         42.27763        20.36135         1.68667
O         58.48741        47.93816         3.14343
O         38.90907        55.00573         2.68570
O         50.82579        51.50774         2.27697
O         53.58421        42.93443         2.10336
O         40.12595        44.13170        -2.78971
O         35.19257        50.69727         1.65322
O         24.49819        41.95632        -3.09727
O         43.48075        46.26388         0.60432
O         44.01128        53.37650        -1.89003
O         59.99588        35.86099         1.12699
O         25.89578        31.49100         1.78108
O         33.22822        44.44739        -2.53139
O         38.06305        15.80437        -0.34923
O         53.14243        46.43957         2.18484
O         31.04628        38.12216         0.48133
O         35.25859        32.55338         2.06634
O         27.75890        32.01059        -1.28239
O         43.65947        33.60600        -1.44836
O         37.96898        45.57501        -2.83008
O         59.43475        25.38418        -0.54693
O         26.90181        46.05908         0.64800
O         23.86981        32.88233        -1.93348
O         44.76262        22.61065         1.73941
O         48.62711        20.10785         0.18952
O         50.67894        50.50794        -1.28085
O         48.10246        23.45953         1.33862
O         32.04401        46.06092         0.69058
O         48.29627        49.14653        -1.89278
H         49.15419        49.67220        -1.92170
O         54.09273        33.91428         2.05516
H         55.00289        34.05073         2.39512
O         40.56316        18.29430         2.18709
H         41.29932        18.86858         2.50421
O         52.69998        35.72151        -1.80232
H         51.77172        35.99533        -2.02697
O         43.15386        44.56972        -2.63369
H         44.06607        44.89552        -2.83755
O         32.85794        23.47202         3.38067
H         33.69985        23.93681         3.60267
O         50.60175        40.10296        -2.08011
H         50.10410        39.30400        -2.37878
O         51.90008        46.71111        -1.27746
H         52.52008        47.44686        -1.50414
O         53.61791        41.82586        -1.39951
H         52.90010        41.75897        -2.07376
O         56.55917        27.36367        -2.47985
H         55.73607        27.20336        -2.98781
O         56.71944        33.57043        -1.69169
H         55.91445        33.94610        -2.11008
O         34.12005        21.05175         3.57514
H         35.06372        21.09902         3.85921
O         41.10181        18.42202        -1.46302
H         40.16993        18.16401        -1.64388
O         46.21101        50.86661         1.68657
H         46.97308        51.19995         2.20833
O         46.35646        25.25843         2.04092
H         46.80881        24.46605         2.41572
O         32.85552        24.34751        -0.21531
H         32.12971        23.72584        -0.46450
O         44.73691        51.12806        -2.36837
H         44.59719        52.07617        -2.69881
O         52.68838        33.08651        -1.23005
H         52.68375        34.01787        -1.58435
O         38.87215        51.11082        -2.23108
H         37.94010        51.40557        -2.40150
O         32.79710        41.79231        -3.42743
H         32.09463        41.18183        -3.75938
O         25.61771        36.91934        -2.93674
H         26.49388        36.40621        -2.97104
O         39.65139        24.23252        -1.69383
H         40.44760        24.03196        -2.23924
O         47.79783        33.51950        -1.46039
H         47.17623        32.90970        -1.93327
O         42.58348        28.76334        -2.08962
H         41.67051        28.44219        -2.29414
O         55.24871        41.10919         2.49551
H         54.80203        41.82890         3.00147
O         31.33191        22.30783         0.27063
H         30.43387        21.93859         0.13432
O         24.85757        33.81948         1.46901
H         25.33867        33.32835         2.17515
O         60.62652        31.52950         1.74144
H         59.90404        32.03308         2.18325
O         57.59613        26.65747         0.94319
H         58.46119        26.81379         1.38038
O         29.96732        48.68895        -2.63487
H         30.83622        48.82598        -3.08042
H         22.75701        23.66655         2.21076
H         20.65204        24.77622         1.50690
H         20.67443        27.10960         0.72438
H         20.72104        28.83158         0.03004
H         20.73222        31.16511        -0.67938
H         20.66814        33.10266        -1.10672
H         20.71101        35.45676        -1.59046
H         20.63910        37.36955        -1.49896
H         20.59749        39.79633        -1.58868
H         20.55752        41.74619        -1.34446
H         20.54164        44.15627        -1.50978
H         20.58769        46.12293        -1.66316
H         22.78468        49.80106        -1.36576
H         20.65927        48.58294        -1.61667
H         24.28835        23.26432         3.41442
H         24.46073        50.70772        -1.58032
H         26.39860        22.49044         4.47729
H         26.56483        51.91372        -1.35626
H         30.69182        19.36972         3.26713
H         28.99075        20.86710         4.32678
H         30.16189        54.04112        -0.04086
H         28.07975        52.81663        -0.39179
H         31.86998        18.34569         1.47286
H         31.79719        54.85105         0.74317
H         33.93811        17.07578         1.07027
H         33.86573        55.92468         1.38580
H         37.83381        14.78978         1.54963
H         35.75925        16.12028         1.91409
H         37.66624        58.03160         1.96383
H         35.59943        56.90735         1.35940
H         39.60137        13.79190         0.81417
H         39.25601        58.61962         2.99395
H         43.62300        13.94192        -0.72265
H         41.70908        12.64719         0.16503
H         43.45493        59.08119         2.25598
H         41.34052        59.95697         3.19121
H         44.87154        15.02295        -1.94695
H         45.12540        58.24682         2.03610
H         46.88520        16.31224        -2.44601
H         47.24269        57.18826         1.57449
H         50.61099        18.64558        -3.00773
H         48.53160        17.40934        -2.80625
H         51.01607        55.28049         1.23667
H         48.93239        56.48563         0.92893
H         52.39235        19.43892        -2.70656
H         52.67505        54.26268         1.78855
H         54.55794        20.57163        -2.53900
H         54.70476        53.04315         2.19210
H         58.32368        22.80023        -2.64716
H         56.21529        21.56999        -2.71824
H         58.11041        50.41530         3.68785
H         56.16603        51.81866         3.06338
H         59.43680        24.30781        -3.71729
H         60.95638        48.56383         3.39029
H         61.32466        25.82956        -4.15978
H         61.72772        27.82860        -2.76656
H         62.28760        29.17639        -1.36862
H         62.45854        31.39152        -0.46268
H         62.23671        33.22467        -1.03334
H         62.18979        35.61246        -1.40866
H         62.31722        37.73216        -0.87772
H         62.28214        40.16823        -0.85243
H         62.00950        42.16330        -1.59333
H         62.07865        44.56844        -1.03823
H         62.54021        45.79144         0.50511
H         62.89380        47.57704         2.15126
