         280
 CSIRO Nanostructure Databank - Neutral Graphene Oxide Data Set
C        -11.01521         0.51971         1.41034
C         -9.69804         1.21263         1.44939
C         -8.49145         0.48010         0.96052
C         -7.19924         1.31905         0.85710
C         -6.07033         0.52984         0.16448
C         -4.99716         1.28328        -0.53010
C         -4.07221         0.64564        -1.54363
C         -2.71359         1.41081        -1.57673
C         -1.54544         0.61747        -1.00602
C         -0.23435         1.44388        -0.72771
C          1.00137         0.72326        -0.25624
C          2.29692         1.47552         0.16421
C          3.58999         0.66422         0.04674
C          4.79121         1.37077         0.63028
C          6.07723         0.62132         0.84808
C          7.36428         1.39906         0.88791
C          8.69132         0.65086         0.85186
C          9.86690         1.39762         0.17930
C         11.10098         0.63028         0.63747
C         -9.62316         2.70356         1.49143
C         -8.67105         3.40505         0.82500
C         -7.52100         2.67598         0.20723
C         -6.41302         3.45927        -0.42402
C         -5.06213         2.79616        -0.42258
C         -3.81654         3.57051        -0.69348
C         -2.64286         2.88996        -1.31434
C         -1.32213         3.65609        -1.34646
C         -0.06918         2.79423        -1.44702
C          1.29352         3.53870        -1.13650
C          2.48428         2.81703        -0.55969
C          3.79881         3.56622        -0.27814
C          4.87436         2.86095         0.50387
C          6.18167         3.56135         0.62411
C          7.36026         2.87760         0.70201
C          8.65225         3.58916         0.66135
C          9.84426         2.87223         0.48553
C         -8.79068         4.92569         0.67298
C         -7.54932         5.70076         0.21822
C         -6.52161         4.98432        -0.66000
C         -4.96668         5.74252         0.08353
C         -3.70881         5.03190        -0.35659
C         -2.42387         5.77751        -0.48046
C         -1.25544         5.14578        -1.18172
C          0.07780         5.86710        -1.15054
C          1.35721         5.06747        -1.16383
C          2.56281         5.75988        -0.53341
C          3.90246         5.04762        -0.49421
C          5.19308         5.82616        -0.13205
C          6.05958         5.04111         0.88430
C          7.41458         5.71796         1.26620
C          8.62162         4.99460         0.72443
C         -7.43068         7.02958         0.45743
C         -6.39111         7.89059        -0.26570
C         -5.02522         7.19111        -0.31441
C         -3.73701         7.95728        -0.22548
C         -2.42766         7.23589        -0.13501
C         -1.17842         8.02055        -0.28004
C          0.05871         7.35839        -0.81500
C          1.32587         8.07182        -0.48099
C          2.51741         7.21428        -0.15901
C          3.81577         7.97239         0.09226
C          4.92542         7.08561         0.68699
C          6.20630         7.88260         0.86491
C          7.37557         7.21343         1.01858
C         -6.23839         9.34270         0.14986
C         -5.07995        10.02235         0.22152
C         -3.71721         9.37121         0.32804
C         -2.47850        10.13968        -0.10767
C         -1.23523         9.51473        -0.23474
C          0.01393        10.17764        -0.08598
C          1.25448         9.46653         0.05698
C          2.39741        10.04846         0.55941
C          3.59427         9.22553         0.98693
C          4.90890         9.98256         1.00306
C          6.09477         9.33908         0.93881
C        -11.10094        -0.78527         1.08357
C        -10.01706        -1.47363         0.32028
C         -8.71304        -0.75809         0.11671
C         -7.52433        -1.44700        -0.58309
C         -6.18727        -0.96981        -0.02736
C         -5.01761        -1.55184        -0.82416
C         -3.94340        -0.84855        -1.29558
C         -2.66870        -1.56078        -1.64999
C         -1.37589        -0.77153        -1.59294
C         -0.03507        -1.42638        -1.36291
C          1.12371        -0.72120        -0.70970
C          2.25072        -1.60363        -0.14563
C          3.57387        -0.82687        -0.03555
C          4.82268        -1.60162         0.32011
C          6.08462        -0.86615         0.61222
C          7.36064        -1.51751         0.13894
C          8.61522        -0.72744         0.20335
C          9.90111        -1.55003         0.29636
C         11.06825        -0.70694         0.77968
C        -10.09712        -2.98612         0.09289
C         -8.73926        -3.68379         0.11897
C         -7.56551        -2.99808        -0.49727
C         -6.26285        -3.75242        -0.53729
C         -4.97915        -3.00396        -0.67035
C         -3.76810        -3.63722        -0.61753
C         -2.59531        -3.02938        -1.29456
C         -1.26365        -3.70002        -1.16098
C         -0.00105        -2.93738        -1.48084
C          1.30233        -3.66611        -1.41023
C          2.57284        -2.85358        -1.09858
C          3.70001        -3.72550        -0.45637
C          5.04844        -2.94731        -0.38190
C          6.17309        -3.80418         0.32258
C          7.49805        -3.00564         0.46140
C          8.75977        -3.78835         0.16039
C          9.53822        -2.86823         1.06915
C         -8.62505        -4.94930         0.60903
C         -7.39109        -5.73114         0.63848
C         -6.18288        -5.24633        -0.16080
C         -4.88931        -5.60244         0.58308
C         -3.64440        -4.86307         0.20345
C         -2.31616        -5.53476         0.38004
C         -1.10228        -4.90097        -0.26095
C          0.13883        -5.72316        -0.41712
C          1.29414        -5.16606        -1.20920
C          2.59008        -5.89745        -1.13170
C          3.86749        -5.08786        -1.13255
C          5.17842        -5.80835        -1.04053
C          6.46881        -5.07022        -0.60064
C          7.53686        -5.95575         0.06549
C          8.81195        -5.13979         0.14363
C         -7.31270        -6.94430         1.24603
C         -6.03355        -7.72285         1.47855
C         -4.77062        -7.01835         1.00951
C         -3.58902        -7.68792         1.02572
C         -2.29404        -7.01072         0.75255
C         -1.11918        -7.83129         0.39993
C          0.06331        -7.21345        -0.22341
C          1.34954        -8.00269        -0.36046
C          2.65602        -7.20230        -0.35361
C          3.84201        -8.04402        -0.81007
C          5.15733        -7.32740        -1.06657
C          6.43815        -8.09624        -0.79235
C          7.65911        -7.34563        -0.50076
C         -6.00670        -9.14622         0.95628
C         -4.84414        -9.81303         0.92512
C         -3.57024        -9.15247         1.43923
C         -2.30620        -9.86354         1.03654
C         -1.15184        -9.23629         0.59768
C          0.06089       -10.10884         0.27250
C          1.39727        -9.38753         0.17593
C          2.58592       -10.03602         0.25392
C          3.83232        -9.47713        -0.34783
C          5.14182       -10.11653        -0.09168
C          6.31883        -9.49312        -0.30383
O          5.34700        -1.57287         1.67612
O          1.80674        -5.90781        -2.34625
O         -2.71874         2.32001        -2.68615
O          5.89546        -7.87729        -2.17356
O         -5.14473         5.59307         1.45682
H         -4.69540         4.75794         1.73490
O         10.27791        -1.95833        -1.03904
H          9.45189        -1.99218        -1.57893
O          4.54832         6.52159         1.99016
O         -7.38398         2.72075        -1.23636
O          7.90754        -0.90223        -1.06681
O          4.25384         4.13537        -1.55942
O         -5.92689        -7.82074         2.94440
H         -5.79494        -6.91228         3.29158
O         -4.16277         3.07700         0.68827
O          4.46501         2.23895         1.74851
O         -4.77314         0.86751        -2.82202
O          6.65580         1.00501         2.12513
O         -4.31366         7.60381        -1.51827
O         -1.98559        -1.09970        -2.85419
O          2.17279         1.76856         1.56198
H          1.21953         1.81274         1.80342
O          3.82410         0.01163        -1.22107
O         -2.71770         5.06059         0.75555
O          2.94275        -6.86136         1.02734
H          2.39712        -6.08828         1.29599
O         -3.59421        -9.23278         2.89209
H         -4.45421        -8.82654         3.18033
O          3.07375        -2.36217        -2.33622
H          2.30044        -2.05876        -2.87686
O         -6.46935         5.32632        -1.92182
O          2.26671         2.85191        -1.98200
O          1.01049        -0.78543        -2.16013
O          0.84269         5.63975        -2.37921
O         -1.48061         4.58595        -2.49126
O         -4.77721         0.74944         0.81382
O          0.78780         8.08358        -1.84126
O         -0.02342        -4.83009         0.73145
O          5.16830         5.15418         2.05802
O          8.22769        -2.77208         1.82692
O         -2.02644        -5.93417         1.73770
O         -9.78032        -0.65411        -0.88736
O          0.00853         2.38097        -2.81802
H         -0.13443         3.17382        -3.38165
O         -7.09265        -3.58346        -1.73913
O         -4.34424        -4.63245         1.50958
O         -8.85057         0.38142         2.37590
O         -2.09196        -3.94745        -2.33327
O          7.12238        -4.62753        -1.79059
H          6.42791        -4.36559        -2.44096
O          9.09318         0.43206         2.22021
H          8.27169         0.38156         2.76501
O         -1.58233         7.46941         1.04048
O          7.14430        -6.26803         1.44133
H          7.94711        -6.53991         1.93396
O         -0.15970       -10.71122        -1.01407
H         -0.06142       -10.00422        -1.69086
O          5.73669        -4.22478         1.61917
H          5.95804        -3.50625         2.25516
O          4.68337        -5.22536        -2.30552
O        -10.73449        -3.24223        -1.16191
H        -10.28012        -2.70655        -1.84629
O          7.57768         5.58234         2.70957
H          6.68020         5.41161         3.08756
O         -9.32575         5.48961         1.86800
H         -8.65813         5.40568         2.57913
O          2.21553         6.18959         0.83460
O          0.69385        -3.34309        -2.69372
O          1.76722        -1.98121         1.13899
H          2.30988        -2.72960         1.49065
O          0.46100        -7.88789        -1.49449
O          3.27119         8.83273         2.34069
H          3.95709         8.21427         2.67610
O         -3.52060         9.22212         1.77395
H         -2.71449         8.66342         1.90998
O         -6.20762        -6.03969        -1.31178
O          3.56980        -9.08446        -1.75827
O         -0.00471         1.22906         0.68501
O         -6.74284         1.65443         2.17510
H         -7.33132         1.18295         2.81563
O         -6.09207        -1.53894         1.30013
H         -5.33756        -1.09797         1.75194
O         -6.87757         7.97587        -1.62467
H         -6.79376         7.06180        -2.01917
O          4.28283         8.45464        -1.18011
H          4.87900         7.78096        -1.58563
O         -2.08866         0.26704         0.30314
H         -2.33630         1.07431         0.80621
O          9.75066         1.28738        -1.26272
H         10.02775         0.38250        -1.52723
O          3.25422        -4.06610         0.88113
H          4.06108        -4.31332         1.41802
O          5.87092         6.14752        -1.34233
H          5.72348         5.40164        -1.97047
O          5.54631        -2.64625        -1.68458
H          4.80551        -2.28191        -2.23351
O         -4.04023         0.21031        -3.87441
H         -3.38756         0.89855        -4.15816
O         -7.52395        -1.04085        -1.95164
H         -8.44981        -1.05884        -2.28101
H         11.96740        -1.24576         1.11750
H         12.00963         1.19054         0.90746
H         10.79131         3.43178         0.43387
H          9.56750         5.55257         0.64964
H          8.31009         7.77261         1.18091
H          7.03449         9.90972         0.99572
H          4.88563        11.07720         1.11367
H          2.36615        11.10117         0.88286
H          0.01153        11.25934         0.11916
H         -2.50291        11.23805        -0.02106
H         -5.11275        11.10644         0.41563
H         -7.17756         9.91815         0.18609
H         -8.21651         7.53696         1.04138
H         -9.56352         5.09390        -0.12910
H        -10.45884         3.24879         1.95910
H        -11.88331         1.04746         1.83328
H        -12.05449        -1.32342         1.19471
H        -10.74713        -3.43256         0.88815
H         -9.51619        -5.42650         1.05121
H         -8.20140        -7.34028         1.76521
H         -6.94269        -9.61483         0.61890
H         -4.79955       -10.85598         0.57675
H         -2.27607       -10.95075         1.21029
H          0.12296       -10.94075         1.01853
H          2.61741       -11.07854         0.60872
H          5.13613       -11.13628         0.32300
H          7.25695       -10.01400        -0.05752
H          8.52008        -7.93346        -0.13486
H          9.76590        -5.65889         0.32882
H         10.34970        -3.29393         1.69996
