         720
 CSIRO Nanostructure Databank - Neutral Graphene Oxide Data Set
C         23.35797        29.15277         2.78568
C         23.15860        29.89212         1.63933
C         22.84703        31.82171        -0.52274
C         22.86158        33.14504        -0.81082
C         22.91161        36.09180        -1.10469
C         22.92386        37.43934        -1.16916
C         23.15975        40.17470        -0.14866
C         23.29996        41.39210         0.60554
C         23.47923        44.00149         1.94960
C         23.56506        45.29112         2.45155
C         25.71530        26.68302         4.15410
C         24.69250        27.58874         4.11411
C         25.57928        28.42026         1.96554
C         24.54636        28.40125         2.95747
C         25.39856        29.30675         0.85922
C         24.19169        29.99638         0.68237
C         25.35008        31.83784        -0.40741
C         24.08027        30.93954        -0.51495
C         25.29923        33.07749        -1.27396
C         24.06561        33.89629        -1.13620
C         25.34043        35.98769        -1.67880
C         24.09028        35.26859        -1.30598
C         25.42675        37.44457        -1.44115
C         24.14609        38.26019        -1.49832
C         25.61325        40.03978        -0.33486
C         24.23545        39.53261        -0.67247
C         25.68494        41.49659         0.07093
C         24.49904        42.05787         0.71785
C         25.77854        44.13703         1.16986
C         24.58664        43.39375         1.31326
C         25.80824        45.49239         1.53190
C         24.71930        46.07056         2.22964
C         25.98264        48.12028         2.67797
C         24.85587        47.38390         2.82624
C         28.07119        23.37725         2.31838
C         28.13434        24.74742         2.31421
C         26.63512        26.56382         3.06643
C         27.71341        27.52670         0.87056
C         26.70220        27.51496         2.03818
C         27.86780        28.95726         0.32135
C         26.57560        29.62643         0.00841
C         27.85932        31.69599        -0.81391
C         26.57653        30.97933        -0.65607
C         27.86197        33.02669        -1.10957
C         26.62517        33.73087        -1.54344
C         27.91648        35.95268        -1.57948
C         26.64955        35.21472        -1.77255
C         27.89040        37.36909        -1.63345
C         26.66157        38.08178        -1.48602
C         27.96361        40.35886        -1.38758
C         26.67361        39.57341        -1.31717
C         28.03480        41.76084        -0.80587
C         26.86610        42.17704         0.02384
C         28.11167        44.37071         0.16250
C         27.07015        43.46014         0.78985
C         28.10445        45.70308         0.42128
C         26.93941        46.33996         1.10406
C         28.33004        48.51383         1.69376
C         27.02763        47.72455         1.71119
C         28.83652        48.89367         3.05739
C         30.34579        23.19329         1.45687
C         29.16282        22.60076         1.82765
C         30.42808        24.63551         1.31861
C         29.25647        25.48686         1.70033
C         30.23100        27.39053         0.26885
C         29.09114        26.88490         1.13073
C         30.32296        28.84098         0.01122
C         29.05348        29.55056        -0.04169
C         30.40461        31.59814        -0.65674
C         29.10660        30.84098        -0.84945
C         30.37932        33.07957        -0.64082
C         29.10060        33.82091        -0.94575
C         30.35809        35.96269        -1.29870
C         29.11672        35.24034        -1.35875
C         30.37598        37.33518        -1.50031
C         29.16618        38.12404        -1.93008
C         30.43665        40.19279        -1.23644
C         29.20087        39.55868        -1.42744
C         30.49483        41.62405        -0.93408
C         29.39971        42.23858        -0.37702
C         30.30884        44.50903        -1.19439
C         29.10127        43.67457        -0.73348
C         30.42461        45.93974        -0.67822
C         29.24946        46.57791         0.04780
C         30.80505        48.36495         1.07333
C         29.42382        47.86848         0.81873
C         30.99422        49.39270         2.06707
C         30.06428        49.49997         3.13293
C         32.88789        20.40414         1.80019
C         31.69437        21.04114         1.75629
C         32.78382        23.06859         0.83412
C         31.48915        22.31901         0.97247
C         32.78581        24.46187         0.61993
C         31.56349        25.22450         0.79629
C         32.76969        27.34980         0.08795
C         31.52000        26.60109         0.24348
C         32.78716        28.69797        -0.22348
C         31.53545        29.43785        -0.34301
C         32.88781        31.53027        -0.73660
C         31.58923        30.88615        -0.58487
C         32.95169        33.02194        -0.88075
C         31.67662        33.80959        -0.80680
C         32.80627        35.87293        -1.54134
C         31.62242        35.23380        -1.22082
C         32.87673        37.30971        -1.59831
C         31.64645        38.03946        -1.13980
C         32.81381        40.18226        -1.97075
C         31.63741        39.48964        -1.45879
C         32.82826        41.68394        -1.90832
C         31.64722        42.40011        -1.35553
C         32.74227        44.39308        -2.23015
C         31.55892        43.75397        -1.55875
C         33.01056        45.77241        -0.29703
C         31.78160        46.68956        -0.61518
C         33.25863        48.19252         0.80215
C         31.88306        47.76311         0.45531
C         33.42357        49.44707         1.59267
C         32.19289        50.28699         1.88067
C         33.68518        51.97191         2.94950
C         32.50195        51.33287         2.93496
C         35.47444        18.89384         1.51599
C         35.34465        20.30187         1.18587
C         34.09567        20.97981         1.22957
C         35.16297        23.00121         0.31144
C         34.00658        22.34447         0.80465
C         35.19880        24.44173         0.15099
C         33.99560        25.16090         0.37909
C         35.29682        27.34856         0.37578
C         33.97542        26.65010         0.65770
C         35.28293        28.74095        -0.11681
C         34.07047        29.39829        -0.35146
C         35.38057        31.46344        -0.93889
C         34.06546        30.80502        -0.68944
C         35.46749        32.88213        -1.41185
C         34.14551        33.63852        -1.59161
C         35.20042        35.95221        -2.19994
C         34.00673        35.11666        -1.96305
C         35.32752        37.27440        -1.86820
C         34.06648        37.98547        -1.73125
C         35.32227        40.18240        -1.66865
C         34.11444        39.42010        -2.19610
C         35.38072        41.62664        -2.06114
C         34.12099        42.41425        -1.94407
C         35.36703        44.59411        -2.13884
C         34.08949        43.77340        -1.96242
C         35.42215        45.92807        -1.36889
C         34.32632        46.43005        -0.62398
C         35.47237        48.54805        -0.33155
C         34.39630        47.70543        -0.03033
C         35.43537        49.94960         0.15661
C         34.69657        50.22557         1.42546
C         35.81799        52.54667         1.53312
C         34.82145        51.56638         2.06907
C         35.90704        53.85784         2.04343
C         37.90342        18.86478         1.00070
C         36.63132        18.20337         1.35676
C         37.82549        20.31965         0.61617
C         36.48030        20.95841         0.61980
C         37.35209        22.87120        -0.79057
C         36.32954        22.24778         0.10213
C         37.68618        24.28691        -0.25533
C         36.44360        25.08671        -0.03902
C         37.81346        27.23438        -0.20607
C         36.55317        26.53540         0.13931
C         37.80963        28.69648        -0.14551
C         36.57040        29.40135        -0.22259
C         37.81802        31.50184        -0.26256
C         36.61042        30.79973        -0.41871
C         37.76671        32.97881        -0.20196
C         36.70665        33.63373        -1.01144
C         37.92698        35.83883        -1.01922
C         36.98230        34.85223        -1.54667
C         37.95856        37.26521        -1.59146
C         36.58212        37.92919        -1.23186
C         37.89370        40.20200        -1.37315
C         36.59047        39.46660        -1.33788
C         37.92263        41.58159        -1.53433
C         36.69127        42.32898        -1.93721
C         37.90439        44.54863        -1.58945
C         36.62074        43.80943        -1.71921
C         37.89438        46.01537        -2.06710
C         36.59989        46.71033        -1.52448
C         37.46313        49.10126        -1.62946
C         36.53622        48.09142        -1.15048
C         37.54710        50.39655        -1.14097
C         36.51941        50.89825        -0.21614
C         37.88589        52.93682         0.24044
C         36.76609        52.13077         0.56846
C         37.95660        54.26238         0.77603
C         36.92099        54.71228         1.63101
C         40.44165        16.05344         0.89065
C         39.26553        16.70313         1.03217
C         40.26620        18.75854        -0.13583
C         39.06743        18.05776         0.48174
C         40.31865        20.29458        -0.16023
C         38.88926        20.88578        -0.27153
C         40.41773        23.10591        -1.30011
C         38.53599        21.98364        -0.97674
C         40.31292        24.42025        -0.80463
C         39.00936        25.02667        -0.35425
C         40.25703        27.22537        -0.05401
C         38.97748        26.51841        -0.30237
C         40.33800        28.71059        -0.32533
C         39.02448        29.41803        -0.12464
C         40.33627        31.55127         0.10155
C         39.05114        30.82835        -0.07366
C         40.33977        33.01295         0.06320
C         39.05332        33.73300         0.00263
C         40.36048        35.92229        -0.36253
C         39.08756        35.20227        -0.29469
C         40.33706        37.32594        -0.59533
C         39.13104        38.05150        -1.00136
C         40.29657        40.23369        -0.79634
C         39.09887        39.45261        -1.04698
C         40.33767        41.60336        -0.96859
C         39.14609        42.35507        -1.34559
C         40.28998        44.53771        -0.79748
C         39.16582        43.75112        -1.44307
C         40.40458        45.98485        -1.27754
C         39.22725        46.70993        -1.74644
C         40.54823        48.82384        -1.79667
C         39.40049        48.02965        -2.12267
C         40.56283        50.20774        -1.78031
C         38.61913        51.31177        -1.43096
C         40.16906        53.24216        -0.99557
C         38.88054        52.45581        -0.70863
C         40.34214        54.33172         0.09432
C         39.08684        55.08366         0.43931
C         40.25616        57.23380         0.35794
C         39.10879        56.48004         0.58645
C         42.84349        16.00430         0.34692
C         41.61557        16.69458         0.33032
C         42.77138        18.68878        -0.49606
C         41.56932        18.03914        -0.11063
C         42.76667        20.10177        -0.86891
C         41.41976        20.77460        -1.18559
C         42.74923        22.98269        -0.93357
C         41.54787        22.29959        -1.14591
C         42.75089        24.37678        -0.69957
C         41.53072        25.06365        -0.50393
C         42.80635        27.26116        -0.23043
C         41.54973        26.48014        -0.07014
C         42.80323        28.70407        -0.03930
C         41.51050        29.35872         0.43802
C         42.80831        31.56675         0.73987
C         41.52292        30.87053         0.28260
C         42.75252        33.08158         0.51612
C         41.50849        33.75012         0.15250
C         42.71367        35.95867         0.18629
C         41.53239        35.21438        -0.00560
C         42.73024        37.35341         0.00422
C         41.54000        38.03482        -0.35529
C         42.75674        40.22134         0.03147
C         41.47643        39.50210        -0.26666
C         42.83505        41.66240        -0.30133
C         41.67517        42.31836        -1.02662
C         42.77249        44.47296        -0.50107
C         41.61531        43.80070        -0.75821
C         42.82603        45.92717        -0.74245
C         41.60343        46.64176        -1.14839
C         42.61310        48.82209        -0.36637
C         41.83034        48.10199        -1.49444
C         42.72284        50.31710        -0.61639
C         41.58174        51.00087        -1.13813
C         42.68356        53.11382        -0.71950
C         41.48833        52.41838        -0.97328
C         42.71017        54.56911        -0.57802
C         41.52067        55.21273        -0.21332
C         42.69186        57.34405        -0.20597
C         41.49029        56.61430        -0.02264
C         44.01409        16.63399        -0.06086
C         45.24289        18.63458        -1.03416
C         43.99702        17.97335        -0.47057
C         45.25818        20.12387        -0.77221
C         43.97080        20.77807        -0.95321
C         45.28253        22.99296        -1.05879
C         43.99767        22.23994        -1.14912
C         45.21019        24.43457        -0.75520
C         44.00832        25.10029        -0.60850
C         45.22187        27.27741        -0.68648
C         43.96467        26.54843        -0.48064
C         45.19980        28.76241        -0.59998
C         43.95331        29.46507        -0.20291
C         45.28977        31.51358        -0.01183
C         44.06057        30.88066         0.15241
C         45.63129        32.83752         0.44677
C         43.77869        33.87250         0.93484
C         45.23091        35.90439         0.33188
C         43.90325        35.35406         0.87189
C         45.26967        37.30423         0.27439
C         43.99525        38.05687         0.21455
C         45.20973        40.16105         0.55128
C         44.00224        39.42598         0.15165
C         45.15428        41.65070         0.55889
C         43.98321        42.35174        -0.03549
C         45.13757        44.51145         0.26773
C         44.03014        43.80594        -0.14633
C         45.10348        46.00103         0.48264
C         44.03262        46.69379        -0.32770
C         45.08468        48.86482         0.14179
C         43.96322        48.17314        -0.17953
C         45.05521        50.33873         0.29156
C         43.86172        51.02546        -0.24566
C         45.15141        53.14417        -0.46748
C         43.91965        52.43062        -0.49161
C         45.16580        54.52445        -1.09769
C         43.91345        55.29713        -0.71566
C         43.87811        56.69051        -0.52759
C         47.65528        18.62986        -0.33018
C         46.55471        17.96571        -0.70466
C         47.64732        20.09771         0.02728
C         46.44628        20.81393        -0.58254
C         47.72822        22.93071        -0.71674
C         46.52976        22.25537        -0.73957
C         47.78298        24.40015        -0.91137
C         46.48825        25.16208        -0.83818
C         47.75614        27.30747        -0.61172
C         46.49529        26.56222        -0.28563
C         47.74619        28.69370        -0.63014
C         46.50199        29.43341        -0.22981
C         47.70920        31.58962        -0.82124
C         46.40086        30.83848        -0.80391
C         47.58795        33.07950        -1.08535
C         46.52816        33.67449        -0.16815
C         47.71788        35.93909        -0.44092
C         46.42461        35.15944        -0.14451
C         47.77517        37.36318        -0.01389
C         46.52488        38.00222         0.27207
C         47.81980        40.20254         0.61582
C         46.52721        39.43310         0.63312
C         47.67310        41.63911         0.08743
C         46.46869        42.36945         0.65916
C         47.70123        44.58339         0.40761
C         46.42679        43.85013         0.59518
C         47.70583        45.97785         0.46629
C         46.43139        46.68721         0.20037
C         47.60059        48.90079         0.70834
C         46.40473        48.17446         0.13334
C         47.64100        50.38270         0.39979
C         46.34081        51.11534         0.42303
C         47.57605        53.23193        -0.03007
C         46.35685        52.53106        -0.04047
C         47.57758        54.61677        -0.40676
C         46.45698        55.25032        -0.85103
C         50.18057        20.20167         0.16036
C         48.98914        20.79220        -0.18517
C         50.30423        23.00993        -0.39535
C         49.00971        22.20212        -0.59717
C         50.21469        24.49287        -0.29921
C         49.02075        25.15424        -0.58779
C         50.18961        27.32935        -0.48060
C         48.98418        26.58437        -0.60073
C         50.17321        28.75339        -0.62653
C         48.94890        29.44083        -0.75256
C         50.13891        31.59212        -1.28815
C         48.88350        30.89847        -0.90221
C         50.11311        33.09890        -1.39939
C         48.91148        33.82181        -0.93208
C         50.26156        35.88414        -0.71000
C         48.98730        35.17091        -0.67189
C         50.27293        37.29101        -0.24269
C         49.00637        38.02602         0.00533
C         50.25651        40.23659        -0.23266
C         49.17239        39.46376         0.51544
C         50.11624        41.71305        -0.41976
C         48.93944        42.43296         0.11318
C         50.11100        44.61773         0.04140
C         48.91857        43.84605         0.20716
C         50.13237        46.00097         0.28114
C         48.91822        46.71891         0.48886
C         50.07571        48.88459         0.41383
C         48.90716        48.17560         0.47993
C         50.11355        50.35142         0.06118
C         48.80825        51.06915         0.36181
C         50.11813        53.20982         0.37379
C         48.78212        52.56737         0.61620
C         51.40572        20.92801         0.28647
C         52.65587        23.08245         0.51436
C         51.48348        22.30563         0.15113
C         52.53182        24.54997         0.62439
C         51.36634        25.24763         0.05119
C         52.59812        27.41919         0.08522
C         51.38603        26.64515        -0.12341
C         52.60334        28.82471        -0.28357
C         51.43189        29.46584        -0.60490
C         52.70345        31.64800        -0.94145
C         51.44644        30.86627        -1.08777
C         52.70356        32.99670        -1.66393
C         51.41593        33.84486        -1.54889
C         52.68062        36.04613        -1.32230
C         51.45031        35.28358        -1.14189
C         52.72006        37.41804        -1.10021
C         51.54302        38.11265        -0.51202
C         52.57941        40.36973        -1.11502
C         51.39790        39.59705        -0.63113
C         52.62110        41.82918        -0.85204
C         51.31845        42.52826        -0.81907
C         52.59872        44.58810        -0.04664
C         51.31093        44.04989        -0.68640
C         52.58372        46.10764        -0.00576
C         51.39750        46.73782         0.22880
C         52.60871        48.95222         0.55149
C         51.34886        48.15864         0.74029
C         52.58033        50.37299         0.69096
C         51.35197        51.08477         0.52523
C         51.28771        52.50847         0.47774
C         55.06917        23.29360         1.00233
C         53.89893        22.52472         0.80252
C         55.09079        24.69307         0.95319
C         53.78099        25.38157         0.88707
C         54.90051        27.64463         1.04209
C         53.73690        26.82079         0.57738
C         54.92991        29.02622         0.53293
C         53.94360        29.50090        -0.49250
C         55.19626        31.74319        -0.65147
C         53.85887        31.01955        -0.59586
C         54.98969        33.25380        -0.46720
C         53.97312        33.83033        -1.44583
C         55.31307        36.08125        -1.52101
C         53.96486        35.32609        -1.60815
C         55.18897        37.55075        -1.20776
C         53.97376        38.17423        -1.19760
C         55.14086        40.42845        -0.97778
C         53.91123        39.65840        -1.29414
C         55.05640        41.75209        -0.64975
C         53.80920        42.49657        -0.70668
C         55.11815        44.67343        -0.29903
C         53.82318        44.02349        -0.75874
C         55.20456        46.15414        -0.09300
C         53.86197        46.86594         0.01736
C         55.03358        48.90289         0.88039
C         53.82351        48.25682         0.52517
C         54.99731        50.30511         1.09382
C         53.82809        51.02560         0.93642
C         57.51820        24.92378         1.42899
C         56.28784        25.48218         1.01085
C         57.41261        27.75873         1.11087
C         56.26061        26.92895         0.59192
C         57.32661        29.15760         1.19703
C         56.00218        29.90438         1.07802
C         57.26014        31.99794         0.75652
C         56.18157        31.22871         0.38252
C         57.32252        33.42180         0.42623
C         56.27271        34.04021        -0.25783
C         57.47647        36.18569        -0.30415
C         56.36464        35.43500        -0.62260
C         57.78112        37.45198        -1.10225
C         56.49330        38.28453        -1.29718
C         57.76043        40.62201        -0.85967
C         56.47757        39.78141        -1.12663
C         57.54251        41.80914         0.06302
C         56.19277        42.47376         0.01900
C         57.79437        44.70888         0.74758
C         56.22070        43.90587        -0.44146
C         57.37549        45.94911         1.29677
C         56.31524        46.75137         0.73533
C         57.06633        48.53800         2.24984
C         56.18378        48.06946         1.22295
C         58.66300        25.68562         1.58700
C         59.74418        27.89948         1.85750
C         58.61839        27.11197         1.50541
C         59.67357        29.28003         1.84214
C         58.45242        29.93723         1.55272
C         59.33803        32.21245         2.03438
C         58.35675        31.39408         1.50986
C         59.33087        33.61235         1.79991
C         58.40577        34.20558         0.96396
C         59.80438        36.27053         0.64623
C         58.41363        35.71057         0.78457
C         60.03807        37.46121         0.08549
C         58.98239        38.25755        -0.58552
C         59.98460        40.39868         0.43361
C         58.97388        39.76687        -0.44978
C         59.79981        41.61211         0.99104
C         58.56003        42.35724         0.81140
C         59.01228        44.07990         2.69775
C         58.45055        43.69645         1.45008
C         58.89068        45.38843         3.14666
C         58.07266        46.34512         2.47779
C         57.92029        47.69123         2.91738
O         38.29827        19.91999         1.95921
O         53.10304        40.05634        -2.45090
O         39.24037        18.15386        -0.97732
O         44.70397        22.65224        -2.38044
O         43.97486        46.20045        -1.70134
O         36.19100        27.07600         1.50250
O         27.28487        25.36160         3.18649
O         41.79399        39.95085         1.11549
O         39.34468        22.52569        -1.98012
O         28.17027        42.99596        -1.79169
O         26.47931        47.53456         0.36903
O         24.06408        30.24892        -1.72004
O         30.58883        26.62302        -0.91679
O         46.56471        47.39212        -1.09255
O         38.30219        48.71543        -2.68223
O         54.19030        34.41692        -2.74627
O         25.92809        35.60604        -2.97785
O         39.53298        50.91876        -2.41962
O         56.55550        39.15730        -2.46235
O         54.66444        46.88337        -1.24388
O         45.51034        50.83870         1.61875
O         36.29577        35.24212        -2.70266
O         49.91262        22.50835        -1.71686
O         35.61828        31.80592        -2.38326
O         47.21044        39.85846         1.88401
O         32.57725        33.67369         0.37706
O         40.84594        26.74531         1.19329
O         38.02805        35.87747         0.43104
O         29.54559        26.71618         2.49163
O         38.13194        33.45986         1.13011
O         38.56664        24.37356         0.90854
O         46.54832        43.11006         1.90238
O         32.48736        41.00958        -3.17404
O         25.89955        32.98699        -2.58493
O         30.03009        45.63923        -2.05656
O         33.53031        48.18026         2.27385
O         50.80674        30.95661        -2.41965
O         52.86678        25.02571         1.99064
O         44.87320        40.91150         1.78319
O         35.52162        50.35855         2.61256
O         36.17049        41.92704        -3.25207
O         27.01504        40.28248        -2.52672
O         50.38343        42.08714        -1.86723
O         37.06329        44.25982        -0.39630
O         35.17629        50.94395        -0.88487
O         32.90295        44.76667         0.38820
O         57.48031        44.48826        -0.59485
O         26.35711        29.78882        -1.45397
O         44.90073        33.30743         1.55431
O         28.97416        47.87608        -0.57231
O         29.59159        33.65645         0.46363
O         50.54621        33.61062        -2.70611
O         59.56351        39.11449        -1.61587
O         46.76009        35.68986        -1.52177
O         35.67908        40.00984        -0.27318
O         45.24374        28.09405        -1.89548
O         33.79480        34.03584        -2.94127
O         35.42954        44.89398        -3.54071
O         47.13790        24.94503        -2.12369
O         51.26417        37.55600         0.81548
O         54.91742        27.62503         2.49577
H         54.70556        26.71287         2.79256
O         31.95116        51.02518         0.63951
H         31.02231        51.33929         0.64218
O         32.65159        45.29601        -3.06017
H         34.55488        45.26518        -3.80318
O         25.99657        39.31622         0.89642
H         25.29761        39.48226         1.56475
O         50.21740        50.38758        -1.41278
H         49.54659        49.77147        -1.77838
O         33.75312        26.73471         2.10492
H         34.64632        26.68760         2.52317
O         46.58060        29.47516         1.22818
H         45.85354        30.04493         1.56579
O         55.77897        31.51015        -1.95223
H         55.61155        30.56332        -2.18055
O         55.84812        36.12763        -2.87685
H         55.56349        35.29799        -3.33377
O         31.71471        37.98282         0.34454
H         31.66477        37.03629         0.60437
O         42.59711        48.20185        -2.71909
H         43.30251        47.50485        -2.68884
O         43.83274        35.80177         2.26907
H         44.48583        35.27273         2.77604
O         40.63630        28.81289        -1.74750
H         40.65766        29.76176        -1.99390
O         38.14569        37.24959        -3.01224
H         37.45502        36.67020        -3.41019
O         48.56923        52.70615         2.06756
H         47.70514        52.29249         2.28294
O         36.37089        37.62767         0.15702
H         35.81089        38.34319         0.53934
O         49.68288        39.36968         1.87104
H         48.89894        39.24369         2.45691
O         36.73178        23.07381        -2.08826
H         37.44431        23.01086        -2.76241
O         51.20847        44.59943        -2.01880
H         50.74564        43.93055        -2.57200
O         58.09282        41.23544        -2.12361
H         58.29405        40.49676        -2.74325
O         47.42608        20.17274         1.47763
H         46.59140        19.69838         1.67779
O         52.66569        44.13114         1.32397
H         51.95813        44.57788         1.83552
O         28.01955        49.77270         1.02816
H         27.72391        49.52342         0.12219
O         42.89339        31.34621         2.18881
H         42.21646        31.91391         2.61616
O         54.41455        29.07936        -1.83156
H         53.69491        29.27930        -2.46958
O         41.83911        48.63783         0.84626
H         42.32939        49.04101         1.59325
O         55.75708        42.59232         1.42634
H         55.67652        41.68879         1.79851
O         55.62702        30.26287         2.46454
H         55.39499        29.41530         2.91580
O         27.68839        43.04973         2.06680
H         27.06787        42.43716         2.51623
O         46.45162        26.43830         1.16726
H         46.55160        27.34541         1.54180
O         27.14545        26.73590        -0.20357
H         26.39550        27.23152        -0.59783
O         45.09955        18.51828        -2.48986
H         45.78138        19.08884        -2.90404
O         31.99835        47.37441        -1.85562
H         31.45386        46.92604        -2.54656
O         25.45398        32.30848         0.95871
H         24.63035        32.79101         1.18348
O         29.22698        38.23342        -3.40224
H         28.44500        38.75926        -3.68448
O         41.34407        29.11457         1.84892
H         42.01595        29.66302         2.32015
O         37.82644        45.95332        -3.50471
H         37.81216        46.87433        -3.84471
O         51.30087        47.98773         2.21685
H         50.37100        47.79051         2.46476
O         44.79817        46.22370         1.88655
H         45.25291        45.53590         2.41870
O         58.25888        36.99264        -2.38351
H         57.47718        36.67276        -2.90150
O         42.03086        42.21891        -2.45992
H         42.78851        42.81977        -2.62920
O         45.98990        30.73204        -2.18214
H         46.26316        31.56217        -2.64279
O         39.89265        44.62670         0.61622
H         38.91066        44.61382         0.66837
O         31.11291        21.89877        -0.38929
H         31.86634        21.39457        -0.76346
O         47.31617        41.45614        -1.33488
H         48.12379        41.59640        -1.87901
O         29.14047        30.38208        -2.24688
H         28.26550        29.96591        -2.43296
O         40.67875        53.57537         1.30532
H         40.80164        54.21575         2.03727
O         45.07420        54.32016        -2.55701
H         45.88409        53.84563        -2.84049
O         40.03637        53.88340        -2.27197
H         39.91846        53.18255        -2.94873
O         24.01185        38.68791        -2.88860
H         24.11942        37.89605        -3.45789
O         40.80541        20.72648         1.12732
H         40.09328        20.54795         1.79071
O         41.00514        20.32917        -2.48408
H         41.72267        20.51328        -3.12463
O         47.40082        48.84781         2.16086
H         46.64243        49.45054         2.36481
O         54.27167        33.40785         0.80420
H         54.76900        32.90393         1.48691
O         34.33703        39.30155        -3.62353
H         33.77353        39.97798        -4.07077
O         53.75556        44.35229        -2.16410
H         53.91074        45.32292        -2.25123
O         52.80574        32.54649        -3.03491
H         51.88475        32.40174        -3.36397
O         56.19570        26.98966        -0.85169
H         56.97667        26.52170        -1.21384
O         47.17806        33.21902        -2.47458
H         47.02430        34.18681        -2.61889
O         57.86782        36.27890         2.03400
H         57.04436        35.78901         2.24409
H         22.58387        29.10761         3.56507
H         22.21986        30.44564         1.49828
H         21.87441        31.31790        -0.41535
H         21.89771        33.67419        -0.84803
H         21.95652        35.58955        -0.89468
H         21.97046        37.97589        -1.05998
H         22.13961        39.80235        -0.31553
H         22.38435        41.82601         1.02843
H         22.54640        43.43904         2.08898
H         22.71661        45.72609         2.99847
H         25.80819        25.96705         4.98136
H         23.94577        27.64027         4.91833
H         26.09908        49.07334         3.21311
H         24.04791        47.73500         3.48500
H         27.22997        22.87849         2.81602
H         28.14760        48.91697         3.91306
H         29.06425        21.50715         1.82970
H         30.36524        50.02254         4.05411
H         32.95826        19.43816         2.32146
H         30.81828        20.55880         2.21463
H         33.85917        52.77707         3.68057
H         31.70543        51.65249         3.62457
H         34.57175        18.34259         1.81518
H         35.16382        54.21395         2.76986
H         36.62782        17.11339         1.50146
H         36.96114        55.73240         2.03760
H         40.55881        15.03547         1.29088
H         38.43738        16.22428         1.57380
H         40.22295        58.32568         0.48120
H         38.18444        57.00133         0.87608
H         42.86966        14.95981         0.68856
H         42.68388        58.43569        -0.07734
H         44.95703        16.07077        -0.05272
H         44.79518        57.28492        -0.64210
H         48.59262        18.07102        -0.18419
H         46.63644        16.89201        -0.93518
H         48.50927        55.19250        -0.31163
H         46.52430        56.30672        -1.14843
H         50.19939        19.14338         0.45846
H         50.16888        54.30656         0.31652
H         52.28285        20.36985         0.64351
H         52.22941        53.07826         0.48956
H         56.01604        22.74439         1.10088
H         54.01460        21.43158         0.78354
H         55.92417        50.84292         1.33764
H         53.86077        52.11798         1.04749
H         57.57099        23.84584         1.63791
H         56.96171        49.57404         2.60110
H         59.60697        25.20046         1.87210
H         60.67774        27.39625         2.14695
H         60.56727        29.86848         2.09181
H         60.15679        31.78960         2.63284
H         60.10896        34.22000         2.28177
H         60.64365        35.70059         1.06971
H         61.06838        37.83968         0.01495
H         60.92907        39.86013         0.59227
H         60.59019        42.06074         1.60948
H         59.58364        43.35161         3.29109
H         59.40022        45.69240         4.07223
H         58.49175        48.04929         3.78541
