         651
 CSIRO Nanostructure Databank - Neutral Graphene Oxide Data Set
C          5.80812        31.64291         1.29456
C          5.82871        32.98548         1.06369
C          8.28310        27.38370         1.45101
C          8.29452        28.76646         1.58110
C          7.06961        29.52336         1.43694
C          8.25178        31.70210         1.83905
C          7.02910        30.89189         1.48412
C          8.32348        33.00350         1.04700
C          7.07022        33.70341         0.81898
C          8.27159        35.66477        -0.08774
C          7.07066        35.03974         0.47021
C          8.43065        37.12345        -0.16123
C         10.78360        23.05086         0.91785
C         10.70316        24.44668         1.08868
C          9.47495        25.20442         1.26442
C         10.74631        27.27259         1.77892
C          9.47054        26.57664         1.44912
C         10.79163        28.75848         2.00044
C          9.53208        29.52231         1.77291
C         10.78586        31.65378         1.89209
C          9.52815        30.89083         1.77103
C         10.78361        33.11669         1.38983
C          9.52859        33.62133         0.78855
C         10.88446        35.53135        -0.29831
C          9.57064        34.84348        -0.02916
C         10.86253        36.95910        -0.85498
C          9.63309        37.74821        -0.43759
C         10.92920        39.84419        -0.71024
C          9.71555        39.16446        -0.47549
C         10.95666        41.25737        -0.75799
C         13.40962        18.85625         0.35450
C         13.34731        20.36463         0.36132
C         12.14052        20.97571         0.64373
C         13.21690        23.16196         0.47067
C         12.03431        22.40168         0.71176
C         13.03442        24.56371         0.34559
C         11.89984        25.19022         0.90373
C         13.23056        27.39299         0.95725
C         12.00697        26.58138         1.37381
C         13.22522        28.89058         1.07209
C         12.16366        29.47870         2.03444
C         13.25314        31.69385         1.72710
C         12.06575        30.96899         1.82056
C         13.25694        33.11605         1.43914
C         12.07911        33.73115         1.07459
C         13.39632        35.74745         0.27071
C         12.13983        34.96280         0.26571
C         13.40712        37.01944        -0.32799
C         12.18059        37.70858        -0.62327
C         13.42205        39.85048        -0.98246
C         12.16742        39.09304        -0.79196
C         13.42464        41.31083        -0.82228
C         12.15935        42.00783        -0.81567
C         13.34994        44.16997        -0.96725
C         12.14729        43.41131        -0.87713
C         13.30184        45.56459        -1.06147
C         15.74770        14.96360        -1.65794
C         15.67368        16.42123        -1.58589
C         14.54381        17.02950        -0.87174
C         15.81084        19.09478        -0.44300
C         14.59024        18.31044        -0.41275
C         15.79573        20.42026         0.01702
C         14.57118        21.10609         0.26295
C         15.75504        23.26548         0.51870
C         14.54348        22.54785         0.41561
C         15.87193        24.67957         0.95204
C         13.94813        25.40736        -0.37618
C         16.00345        27.82262         0.24014
C         14.02809        26.73535        -0.08652
C         15.86918        29.07967         0.80916
C         14.53234        29.70925         0.98338
C         15.72189        31.71717         2.13904
C         14.50505        31.01804         1.62242
C         15.68993        33.19495         1.82087
C         14.53591        33.82086         1.36251
C         15.81720        35.87240         0.77467
C         14.56585        35.15996         0.83009
C         15.90842        37.05432         0.06953
C         14.75575        37.58033        -0.76264
C         15.93726        39.92524        -0.60650
C         14.75190        39.11425        -0.94286
C         15.89115        41.31767        -0.61046
C         14.62852        42.01736        -0.78193
C         15.82025        44.16550        -0.79738
C         14.62020        43.45766        -0.86868
C         15.82598        45.61126        -1.06655
C         14.50422        46.36697        -1.24189
C         15.68225        48.57900        -1.04960
C         14.50727        47.84055        -1.14646
C         15.73166        49.99039        -1.19533
C         18.14327        10.73714        -2.09690
C         18.17024        12.15052        -2.14885
C         16.95670        12.88506        -2.05622
C         18.15127        15.06647        -2.28867
C         16.91246        14.29571        -2.00979
C         18.24238        16.48254        -1.87426
C         16.97864        17.22824        -1.66633
C         18.25791        19.18721        -0.85530
C         17.03556        18.52711        -0.95427
C         18.34901        20.48080        -0.21400
C         17.09643        21.08074         0.42607
C         18.31903        23.29846         0.71172
C         17.07433        22.60498         0.13048
C         18.24961        24.79078         0.79589
C         17.06646        25.51119         0.49138
C         18.31216        27.65443         0.89162
C         17.11569        26.95147         0.53023
C         18.30277        29.06456         1.15017
C         17.05726        29.75113         1.27264
C         18.24081        31.79280         1.97335
C         17.04032        31.09062         1.73463
C         18.13990        33.16316         2.65179
C         16.91182        33.95265         2.13626
C         18.33259        35.92155         1.28970
C         16.98926        35.34253         1.52943
C         18.39345        37.16006         0.61410
C         17.21004        37.71769        -0.06514
C         18.40128        39.99893        -0.03529
C         17.21486        39.22451        -0.41365
C         18.34185        41.44091        -0.14414
C         17.10812        42.09364        -0.42643
C         18.30036        44.26400        -0.49670
C         17.07887        43.51021        -0.54238
C         18.30211        45.71042        -0.54416
C         16.99599        46.39081        -0.56497
C         18.21448        48.61382        -0.65618
C         16.93458        47.89302        -0.63044
C         18.18546        50.03613        -0.85555
C         16.94161        50.72441        -1.08896
C         18.15274        52.87681        -1.13151
C         16.96404        52.14259        -1.23487
C         18.19151        54.32980        -1.25421
C         20.47613         6.35582        -1.98718
C         20.45623         7.76243        -1.96759
C         19.29754         8.54980        -2.03828
C         20.57303        10.69973        -1.99637
C         19.33217         9.98584        -2.02630
C         20.62479        12.09849        -2.14233
C         19.43131        12.82952        -2.23662
C         20.71498        15.02690        -2.12200
C         19.46044        14.29902        -2.40446
C         20.71551        16.39159        -1.83717
C         19.45190        17.11700        -1.74571
C         20.75805        19.20786        -1.19215
C         19.44684        18.62842        -1.63651
C         20.71241        20.66429        -0.92743
C         19.53489        21.19404        -0.18237
C         20.98520        23.22670         0.38208
C         19.64851        22.53741         0.46619
C         21.16471        24.49402         1.06167
C         19.32583        25.52347         1.30541
C         20.76929        27.57468         1.32278
C         19.49541        26.91170         1.16106
C         20.73938        28.97227         1.44220
C         19.52013        29.73333         1.48526
C         20.70950        31.86598         2.14952
C         19.48390        31.12069         1.86165
C         20.71842        33.20544         2.43424
C         19.46510        34.04617         2.67491
C         20.73878        35.99069         1.65345
C         19.50361        35.30620         1.78940
C         20.77586        37.30942         1.14487
C         19.59314        37.90737         0.61825
C         20.77600        40.09158         0.60444
C         19.55961        39.31994         0.31764
C         20.78050        41.56640         0.37680
C         19.52926        42.21279        -0.05195
C         20.83558        44.30941        -0.51323
C         19.52244        43.59612        -0.27285
C         20.79902        45.82738        -0.36909
C         19.45965        46.47820        -0.41329
C         20.60756        48.68956        -0.02796
C         19.39993        47.90761        -0.41315
C         20.66898        50.04928        -0.63381
C         19.38788        50.77899        -0.82156
C         20.63131        52.91129        -0.67660
C         19.37684        52.17159        -0.93248
C         20.58672        54.40461        -0.64446
C         19.32478        55.06067        -1.05349
C         20.65437        57.07707        -1.81675
C         19.37305        56.56915        -1.17600
C         20.67054        58.26874        -2.54507
C         22.85125         3.47525        -1.49957
C         21.66316         4.18631        -1.68366
C         22.94892         6.24799        -1.75026
C         21.68340         5.59851        -1.80021
C         23.00083         7.69695        -1.96761
C         21.74324         8.45908        -1.72882
C         23.12481        10.63993        -1.80290
C         21.81187         9.95090        -1.75475
C         23.16007        12.04511        -1.83660
C         21.96007        12.75488        -2.45990
C         23.23795        14.96697        -1.78235
C         21.97561        14.27656        -2.26081
C         23.15390        16.38004        -1.36223
C         21.95673        17.07868        -1.50130
C         23.22738        19.19708        -1.05560
C         21.95112        18.51435        -1.24459
C         23.27338        20.66742        -1.45616
C         21.98823        21.43099        -1.03753
C         23.29314        23.54230        -0.48173
C         22.05991        22.72998        -0.32755
C         23.29288        24.95318         0.03065
C         22.10799        25.44831         0.75589
C         23.25403        27.56423         1.10778
C         22.05042        26.85424         1.16238
C         23.26118        29.02357         1.37280
C         21.98800        29.64567         1.93601
C         23.23835        31.73248         2.42305
C         21.99903        31.18124         1.71095
C         23.29497        33.21321         2.60430
C         22.00320        33.96351         2.60097
C         23.27215        36.00216         1.70158
C         21.99599        35.47989         2.35023
C         23.29075        37.33493         1.27768
C         22.03147        38.05594         1.07254
C         23.31206        40.06466         0.21605
C         22.04971        39.36393         0.67000
C         23.28708        41.58095         0.31136
C         22.07102        42.27665         0.22097
C         23.25081        44.40383         0.30185
C         22.05507        43.67684         0.12723
C         23.15438        45.83350         0.80957
C         22.00929        46.57934         0.10990
C         23.19259        48.82460         0.59083
C         21.87603        48.04152         0.42072
C         23.18366        50.18307        -0.10409
C         21.97682        50.75947        -0.73643
C         23.15358        53.02308        -0.57973
C         21.94921        52.25648        -1.07665
C         23.14053        54.41427        -0.72706
C         21.87151        55.23187        -0.60920
C         23.11597        57.04181        -1.83266
C         21.87407        56.44051        -1.50575
C         23.12924        58.28200        -2.52847
C         21.89635        58.88572        -2.91805
C         23.14427        60.73770        -3.90919
C         21.92831        60.11983        -3.62245
C         24.08271         4.12664        -1.42048
C         25.40035         6.24669        -1.37786
C         24.15700         5.53768        -1.54760
C         25.49174         7.63667        -1.41082
C         24.30729         8.42468        -1.81131
C         25.49492        10.53671        -1.23021
C         24.29790         9.88643        -1.58577
C         25.49323        11.93807        -1.09868
C         24.36038        12.70959        -1.46913
C         25.52110        14.83515        -0.89881
C         24.40077        14.16364        -1.36227
C         25.53630        16.26716        -0.78373
C         24.37287        17.03064        -0.95150
C         25.68501        19.17294        -0.66234
C         24.39783        18.48440        -0.86445
C         25.76271        20.56659        -0.70192
C         24.58250        21.37435        -1.05672
C         25.81375        23.37131         0.04690
C         24.61134        22.83037        -0.65212
C         25.74559        24.72055         0.63422
C         24.55695        25.58313         0.44600
C         25.81489        27.62190         0.94565
C         24.51704        26.89223         0.87595
C         25.86325        29.07273         1.32015
C         24.55904        29.74537         1.59737
C         25.86725        31.73191         2.84566
C         24.55155        31.00902         2.41951
C         25.88689        33.18727         2.36241
C         24.56908        33.80717         2.07130
C         25.83200        35.91672         1.51430
C         24.53246        35.23330         1.63697
C         25.77182        37.29185         1.01690
C         24.50308        38.01246         1.03911
C         25.80161        40.17981         0.69057
C         24.49248        39.51504         1.01612
C         25.77292        41.54053         0.04001
C         24.49024        42.30897         0.24965
C         25.72426        44.50953         0.15462
C         24.48849        43.72347         0.29143
C         25.74355        45.86332         0.32474
C         24.53903        46.63950         0.88073
C         25.72414        48.87346         0.44911
C         24.46335        48.02597         0.16497
C         25.58557        50.25675         0.41259
C         24.34636        50.91025        -0.03470
C         25.59301        53.05426        -0.37265
C         24.37491        52.33054        -0.36416
C         25.60062        54.42381        -0.72417
C         24.36767        55.10912        -0.91152
C         25.60678        57.08179        -1.73168
C         24.36152        56.42960        -1.45116
C         25.58951        58.33424        -2.38840
C         24.37634        58.93179        -2.80997
C         24.35398        60.16761        -3.50703
C         26.67075         8.35173        -1.06055
C         27.91077        10.43771        -0.66756
C         26.70890         9.75468        -0.97809
C         27.96495        11.83463        -0.48557
C         26.65559        12.59381        -0.40066
C         28.06743        14.71618        -0.42586
C         26.78444        14.05239        -0.76027
C         28.00380        16.14684        -0.01162
C         26.76608        16.93893        -0.30163
C         28.12179        19.04600        -0.21458
C         26.86655        18.40246        -0.44018
C         28.18810        20.41806        -0.06965
C         27.08354        21.29988        -0.58308
C         28.23837        23.29872         0.51803
C         27.00380        22.66501         0.09566
C         28.30148        24.64500         0.86750
C         27.03879        25.36574         1.07201
C         28.33717        27.50335         1.53131
C         27.09531        26.85559         1.04302
C         28.34887        28.83255         1.89223
C         27.14117        29.68703         1.79592
C         28.37754        31.72877         2.59642
C         27.12468        31.01200         2.41767
C         28.36580        33.25214         2.53898
C         27.05806        33.89781         2.20903
C         28.30654        36.03611         1.66365
C         27.04660        35.29522         1.77417
C         28.30845        37.41993         1.36059
C         27.05866        38.07607         0.95772
C         28.22460        40.31222         1.13015
C         26.98060        39.54957         0.92205
C         28.20356        41.80847         0.79686
C         26.99869        42.37550         0.22322
C         28.23645        44.50285        -0.33661
C         26.92243        43.74173        -0.41014
C         28.16031        46.00893        -0.55705
C         27.02481        46.64458         0.25569
C         28.31157        48.85886        -0.00045
C         27.04894        48.14890         0.43390
C         28.56716        50.12254         0.41697
C         26.69374        51.15924         0.61956
C         28.10185        53.08662        -0.16841
C         26.82019        52.40727         0.02994
C         28.06513        54.43056        -0.60078
C         26.85174        55.12468        -0.87893
C         26.83059        56.44029        -1.37346
C         29.17120        12.49152        -0.21782
C         30.48069        14.55912         0.12090
C         29.27902        13.91402        -0.08453
C         30.59537        16.02992         0.19510
C         29.31961        16.84632         0.18279
C         30.67181        18.92520         0.13556
C         29.40901        18.25334        -0.35624
C         30.68120        20.25609         0.43228
C         29.41548        21.01980         0.47827
C         30.79775        23.16474         0.76298
C         29.47220        22.49396         0.71554
C         30.84853        24.67736         0.69163
C         29.53761        25.35862         1.07024
C         30.81672        27.42125         1.52966
C         29.55244        26.70289         1.45098
C         30.83712        28.82167         1.66995
C         29.63325        29.51593         2.15287
C         30.82992        31.75687         1.78810
C         29.67817        31.01229         2.36172
C         30.79623        33.14729         1.64056
C         29.70697        33.97431         2.32845
C         30.74667        36.00474         1.37412
C         29.56436        35.35768         1.74698
C         30.82469        37.49918         1.51031
C         29.50280        38.19151         1.27857
C         30.73398        40.33368         1.02703
C         29.50255        39.58483         1.13015
C         30.69793        41.79176         0.87394
C         29.51651        42.45939         0.63972
C         30.65403        44.71425         0.60459
C         29.48837        43.86433         0.14933
C         30.63206        46.12638         0.05762
C         29.50156        46.72027        -0.38708
C         30.76886        48.92545        -0.53194
C         29.45347        48.18969        -0.77621
C         30.73862        50.37165        -0.59613
C         29.58949        51.01200        -0.13140
C         29.36038        52.41584        -0.20446
C         31.83056        16.74696        -0.12675
C         33.12809        18.85175        -0.05076
C         31.90852        18.15061         0.01430
C         33.23635        20.21705         0.45037
C         31.91954        20.95273         0.82079
C         33.30286        23.05508         1.19224
C         31.94460        22.43550         0.85897
C         33.32643        24.56255         1.12732
C         32.03198        25.22401         1.53309
C         33.22737        27.42559         1.21123
C         32.03636        26.72180         1.38418
C         33.22951        28.85656         1.19778
C         32.02527        29.56374         1.47096
C         33.11394        31.66075         0.84219
C         31.99348        30.99939         1.39070
C         32.94619        33.05694         0.28539
C         31.87747        33.85433         1.01247
C         32.83620        35.98462         0.01955
C         31.88920        35.25193         0.95918
C         33.04672        37.46953         0.31146
C         31.96247        38.19078         0.80079
C         33.19895        40.33586         0.55584
C         31.92689        39.62507         0.81959
C         33.25499        41.81920         0.63476
C         32.00184        42.59520         1.01874
C         33.19927        44.70618         0.16794
C         31.91488        43.90847         0.19799
C         33.16072        46.07226         0.07995
C         31.91182        46.88643         0.35103
C         31.92663        48.26866        -0.24419
C         34.39478        21.06625         0.12764
C         35.55952        23.21925         0.04592
C         34.43279        22.40842         0.41403
C         35.67622        24.56903         0.34904
C         34.50305        25.25627         0.94567
C         35.62151        27.47987         1.20490
C         34.47480        26.71274         1.10830
C         35.68267        28.87274         0.86766
C         34.41924        29.57834         0.90220
C         35.50699        31.67153         0.14660
C         34.31229        30.95957         0.62137
C         35.46871        33.15803         0.09182
C         34.25988        33.80417         0.13260
C         35.39165        35.98506        -0.58377
C         34.13945        35.23396        -0.26317
C         35.41605        37.46349        -0.44870
C         34.25317        38.14282        -0.13068
C         35.54198        40.35107        -0.31656
C         34.20209        39.64486        -0.33869
C         35.55958        41.76770        -0.27229
C         34.41394        42.54296         0.03387
C         34.39760        43.93765        -0.04625
C         36.84634        25.26728        -0.17420
C         38.23527        27.44313        -0.19140
C         37.32962        26.45929         0.32787
C         38.11047        28.81671         0.07975
C         36.88649        29.49216         0.49015
C         38.06588        31.76028         0.35938
C         36.81658        30.94171         0.13744
C         37.95292        33.18286        -0.15530
C         36.73268        33.82964        -0.21672
C         37.98501        36.02137        -0.73784
C         36.68851        35.23232        -0.67111
C         37.89754        37.48554        -0.62653
C         36.69382        38.16864        -0.56185
C         36.70133        39.60466        -0.47731
C         39.24598        29.65552        -0.28098
C         40.47765        31.79946        -0.35024
C         39.27943        31.01850        -0.14951
C         40.44788        33.16175        -0.33142
C         39.20119        33.91317        -0.31737
C         39.21654        35.28710        -0.44063
O         22.91031        14.86538        -3.23154
O         18.74771        14.78634        -3.59241
O         27.74200        50.69034         1.39990
O         15.05035        27.45075        -0.72819
O         10.69985        27.82448         3.13548
O         26.50255        37.48597        -0.27184
O         26.63447        27.36958        -0.25094
O         26.16082        24.77278         2.07148
O         17.86606        32.82661         4.00892
O         33.73888        40.97359         1.75933
O         11.71539        34.66902        -1.15275
O         22.74191        33.67210         3.85850
O         23.65701        30.95571         3.57503
O         29.23254        21.57378         1.85397
O         19.00472        22.61383         1.79183
O         21.00711        21.48564        -2.14160
O         14.15037        39.46119        -2.22898
O         16.07147        17.15862        -2.80215
O         27.37088        47.21824         1.54119
O         20.63153        41.02638         1.75306
O         16.71992        47.16245         0.64882
O         34.51577        35.48030        -1.67200
O         24.89548        22.44430        -2.04691
O         22.70134        45.63870         2.12626
O         36.80402        26.84630         1.57956
O         15.21544        25.14219         1.87985
O         29.19388        43.93382        -1.30035
O         23.86435        29.82137         0.29958
O         20.54741        53.60630         0.61435
O         23.76845         8.08921        -3.15209
O          8.76548        34.86304        -1.23341
O         16.65579        35.14824         2.94118
O         13.51530        29.62325        -0.12171
O         27.70485        14.43089        -1.83342
O         27.09237        16.42982         1.08821
O         13.16029        26.74983         2.26716
O         20.26195        24.81896         2.06778
O         28.37286        32.56985         3.82298
O         32.72608        20.31817         1.85316
O         22.05426        52.42985        -2.47206
O         28.05304        41.28729         2.20663
O         37.32879        35.47528        -1.95932
O         29.94200        16.60962         1.44170
O         17.47626        38.19639        -1.42222
O         24.40558        34.10182         0.63850
O         15.36921        45.94740        -2.39946
O         10.68896        32.78956         2.82332
O         20.89591        48.48375         1.41076
O         36.10407        31.15759        -1.11800
O         21.79982        46.39364        -1.31892
O         21.48092        49.95108        -1.86384
O         29.92089        30.10039         3.48497
O         21.73966         9.18985        -0.45715
O         26.65009        29.83674         0.35446
O         23.14010        24.68291        -1.41131
O         24.42057        47.75971        -1.24554
H         24.16999        48.58039        -1.72175
O         24.81833        46.86484         2.25138
H         24.07118        46.41576         2.74736
O         24.21773        39.92220         2.39710
H         24.99237        39.70674         2.95795
O         27.50327        21.62135        -1.97441
H         26.71035        22.03609        -2.40076
O         23.45597        39.71110        -1.17677
H         24.27748        40.15472        -1.51709
O         15.61073        31.59619         3.58302
H         16.43585        32.05621         3.97352
O         21.94591        29.32780         3.34998
H         21.22452        29.84533         3.76627
O         29.21677        48.32716        -2.19688
H         28.48013        47.70559        -2.42699
O         10.77158        36.84056        -2.29617
H         11.26003        36.02218        -2.54429
O         32.07376        36.00786        -1.22474
H         32.72282        35.90037        -1.96034
O         12.18489        18.28588        -0.11120
H         12.07343        18.52561        -1.05385
O         33.66377        39.82195        -1.68907
H         34.22417        39.30687        -2.30779
O         25.89362        31.77295         4.29286
H         24.95842        31.71276         4.60644
O         17.11661        20.83115         1.84985
H         17.88940        21.31528         2.23368
O         19.26289        19.11433        -3.00892
H         19.71293        19.98519        -3.08957
O         25.76038        41.16583        -1.40997
H         25.85040        42.02745        -1.90441
O         21.95804        36.11390         3.66044
H         21.18755        35.71000         4.13509
O         21.05174        44.04156        -1.93932
H         21.64548        44.75672        -2.27124
O         17.21176        22.78698        -1.30667
H         16.37648        22.50449        -1.73605
O         19.34386        57.11650         0.15829
H         20.16765        56.81431         0.61397
O          8.08381        32.07854         3.24073
H          8.93577        32.48948         3.52600
O         21.89805        55.81332         0.74695
H         21.68003        55.07022         1.35859
O         32.14346        42.89562         2.42788
H         32.62585        42.13147         2.82852
O         32.44006        32.87044        -1.07685
H         33.15868        32.47239        -1.61333
O         30.53089        44.88580         2.03568
H         30.92516        44.10962         2.50711
O         14.95275        37.00973        -2.08872
H         14.56902        37.65388        -2.73032
O         26.63928        43.58667        -1.84650
H         27.51053        43.40517        -2.27054
O         31.77221        24.91812         2.92416
H         32.30941        24.12304         3.16530
O         33.51125        22.75660         2.61517
H         33.37695        21.77779         2.71726
O         31.12717        37.70030         2.94494
H         30.63396        37.02147         3.45566
O         23.28003        20.60189        -2.89651
H         23.49773        21.50174        -3.22815
O         14.73183        24.88092        -1.37198
H         15.28576        25.61666        -1.71750
O         19.58299        34.57985         4.01387
H         18.93409        34.02994         4.54731
O         29.55469        18.08448        -1.80309
H         29.41714        18.95592        -2.23232
O         22.11250        12.52084        -3.88875
H         22.66455        13.25921        -4.23961
O         22.01154        31.53337         0.31560
H         22.78666        31.10831        -0.12654
O         31.12927        25.04463        -0.68760
H         30.33560        24.85487        -1.23044
O         31.70392        43.50041        -1.17665
H         32.56886        43.25146        -1.56521
O         31.94213        47.15194         1.79496
H         31.44472        46.41241         2.23313
O         30.25221        34.24279         3.66166
H         29.90060        33.53018         4.25185
O         23.34055        49.10974         1.99404
H         22.44631        49.06821         2.40358
O         27.74471        46.15858        -1.94638
H         28.28320        45.52506        -2.47080
O         12.71495        29.32437         3.35808
H         12.32832        28.49903         3.74198
O         26.29551        12.61018         1.02109
H         26.20748        11.68052         1.32005
O         38.20605        31.86032         1.81228
H         39.08490        32.25241         2.00051
H          4.84932        31.10375         1.32806
H          4.88539        33.53638         0.93536
H          7.31850        26.88149         1.27978
H          6.14362        28.96314         1.23245
H          6.13735        35.62116         0.51076
H          7.55572        37.74381         0.08836
H          9.87651        22.43590         1.01296
H          8.51607        24.67558         1.15172
H          8.80373        39.75299        -0.29337
H         10.00061        41.80060        -0.71717
H         13.52347        18.52441         1.42642
H         11.24511        20.35354         0.78785
H         11.18216        43.93841        -0.90513
H         12.33424        46.07726        -0.95504
H         14.86374        14.38346        -1.35157
H         13.63856        16.42642        -0.70354
H         13.54853        48.36627        -1.27725
H         14.80305        50.53132        -1.43342
H         17.17245        10.22050        -2.09245
H         16.01724        12.32698        -1.92819
H         16.01343        52.67167        -1.40056
H         17.26004        54.84382        -1.53949
H         19.52789         5.80803        -2.09703
H         18.31784         8.05740        -2.13258
H         18.47579        56.95434        -1.71951
H         19.72210        58.76755        -2.79618
H         22.81414         2.38049        -1.40867
H         20.70438         3.65154        -1.74018
H         23.15142        61.69342        -4.45179
H         20.98338        60.58884        -3.93172
H         25.00303         3.54743        -1.25919
H         26.29679         5.66042        -1.12390
H         26.54134        58.84104        -2.60674
H         25.30267        60.67609        -3.73131
H         27.58275         7.78277        -0.82357
H         28.84228         9.85583        -0.59073
H         29.01767        54.95046        -0.78959
H         27.77853        56.97257        -1.54203
H         30.09239        11.89271        -0.14159
H         31.40255        13.96506         0.21835
H         31.63321        50.94119        -0.89145
H         30.21853        53.03006        -0.52586
H         32.74101        16.17043        -0.34860
H         34.03878        18.33698        -0.39164
H         34.10827        46.62599        -0.01976
H         32.85262        48.85258        -0.11151
H         35.23061        20.60204        -0.41854
H         36.38589        22.72339        -0.48680
H         36.50457        42.28839        -0.49218
H         35.31759        44.46640        -0.33966
H         37.33768        24.81931        -1.05181
H         39.07732        27.12196        -0.82518
H         38.83599        38.05977        -0.60249
H         37.67397        40.11860        -0.51126
H         40.15728        29.13812        -0.62170
H         41.43076        31.27063        -0.50147
H         41.38108        33.73064        -0.45579
H         40.17188        35.83256        -0.40926
