         260
 CSIRO Nanostructure Databank - Neutral Graphene Oxide Data Set
C         30.68392        32.24700         2.09799
C         30.68586        33.42739         1.66153
C         30.92017        36.49606         1.20377
C         30.72816        37.59379         1.72980
C         30.55978        40.59951         0.48657
C         30.28624        41.85295         0.20520
C         32.90609        29.27724         2.04033
C         31.96889        30.01725         2.40384
C         32.81248        31.86783         1.07828
C         31.73639        31.33712         1.89608
C         32.78918        33.20997         0.61678
C         31.69380        34.09459         0.93825
C         32.81830        36.02424        -0.09535
C         31.71060        35.47547         0.58985
C         32.77957        37.45961        -0.46733
C         31.51938        38.82028         1.96392
C         32.91525        40.55875         0.44059
C         31.56796        39.78221         0.81690
C         32.67078        41.83213        -0.39526
C         31.38791        42.63350        -0.04489
C         32.62285        44.63209        -0.77289
C         31.64809        43.99742        -0.33503
C         35.32356        27.37620         0.65803
C         34.67922        28.62543         0.35773
C         33.95118        29.51045         1.10522
C         35.33601        31.65340         0.41238
C         34.06608        31.02420         0.92755
C         35.25417        33.04794        -0.16867
C         33.95843        33.81455        -0.09990
C         35.21967        35.98390        -0.61362
C         34.01225        35.29415        -0.28354
C         35.28705        37.38876        -0.70465
C         34.08423        38.18595        -0.31405
C         35.37960        40.45142        -0.45039
C         34.10590        39.67042        -0.07021
C         35.18673        41.74787        -1.31590
C         33.86071        42.50475        -1.03386
C         35.24106        44.69191        -0.76438
C         33.92186        44.04368        -1.11839
C         35.44978        46.02660        -0.18234
C         37.74327        27.28526        -0.09858
C         36.39896        26.88090         0.29984
C         37.78816        28.75411        -0.52808
C         36.57740        29.64155        -0.43920
C         37.88663        31.68312         0.24339
C         36.59357        30.90607         0.03175
C         37.75840        32.99930        -0.59099
C         36.54665        33.85190        -0.09513
C         37.75759        35.97714        -0.73736
C         36.46882        35.17395        -0.94132
C         37.72005        37.40988        -1.08018
C         36.52807        38.09080        -0.87986
C         37.79449        40.33537        -1.30057
C         36.50639        39.57767        -1.06800
C         37.75859        41.88104        -1.46597
C         36.45991        42.54177        -1.00558
C         37.63374        44.31869         0.22487
C         36.44784        43.81714        -0.53421
C         37.61335        45.62727         0.92695
C         36.41479        46.25299         0.60351
C         39.99924        25.00228         1.97714
C         39.03542        25.49096         1.37758
C         40.21221        27.50253         0.74008
C         38.99507        26.66009         0.48628
C         40.30293        28.78313         0.18427
C         39.10222        29.46169        -0.38343
C         40.30111        31.59206        -0.38343
C         39.12607        30.94099        -0.22159
C         40.35151        33.09686        -0.22156
C         39.06012        33.75516        -0.65260
C         40.28110        35.86973        -1.30366
C         39.05351        35.21078        -0.75721
C         40.25450        37.37990        -1.44607
C         39.02627        38.12813        -0.99483
C         40.47187        40.36206        -0.96217
C         39.09139        39.62763        -0.96658
C         40.37987        41.89707        -1.12978
C         39.05743        42.58925        -1.04544
C         40.21220        44.51420         0.41295
C         38.98568        43.68840        -0.01810
C         39.98757        45.19149         1.79887
C         38.54184        45.79475         2.09510
C         39.85651        47.57382         3.20128
C         38.84284        47.21234         2.54587
C         42.55605        25.14024         2.65646
C         41.21976        25.68263         2.39304
C         42.65824        27.83516         1.52810
C         41.31810        27.05260         1.62442
C         42.78208        28.73611         0.29203
C         41.53874        29.46309         0.01493
C         42.92076        31.49638        -0.73981
C         41.54708        30.79159        -0.59291
C         42.87730        33.00830        -0.62065
C         41.60655        33.72345        -0.77701
C         42.84350        35.95333        -1.26541
C         41.58778        35.11000        -1.27745
C         42.82925        37.34645        -1.85865
C         41.52197        38.11552        -1.76764
C         42.80388        40.19129        -1.93107
C         41.61237        39.59627        -1.65407
C         42.80176        42.19726        -0.91297
C         41.53655        42.57674        -0.46600
C         42.66439        44.08349         1.04202
C         41.46891        43.64368         0.43514
C         42.59681        45.46191         1.68560
C         41.24019        45.77485         2.37471
C         42.46200        47.47176         3.55782
C         41.17171        47.08899         3.15803
C         43.58357        25.83066         2.50269
C         45.16405        27.53420         1.50732
C         43.92998        27.00794         1.79216
C         45.36749        28.67538         0.59704
C         44.17061        29.37178        -0.01972
C         45.41456        31.56323        -0.75869
C         44.17527        30.80566        -0.37319
C         45.36069        32.99884        -1.22215
C         44.14879        33.77229        -0.81911
C         45.46094        35.93545        -1.33823
C         44.15727        35.26433        -1.05945
C         45.45832        37.37970        -1.67421
C         44.14529        38.07810        -1.93301
C         45.35568        40.41801        -1.39934
C         44.16309        39.59240        -1.93552
C         45.26919        41.86326        -0.77835
C         43.98720        42.44285        -0.22327
C         45.14921        43.78269         1.58014
C         43.89984        43.41943         0.79801
C         45.03672        45.27387         1.93190
C         43.80283        45.64921         2.69773
C         43.59255        47.06019         3.18195
C         47.59377        27.39982         1.68058
C         46.43840        26.99123         1.89035
C         47.89439        28.53771         0.84850
C         46.65850        28.93005         0.17588
C         47.88030        31.55570         0.15722
C         46.76441        31.01532        -0.46646
C         47.92582        32.93922         0.55199
C         46.62986        33.77643        -1.43403
C         47.95864        35.89419        -0.99857
C         46.62745        35.23115        -1.13875
C         47.97935        37.40391        -1.09313
C         46.72647        38.18944        -1.46089
C         47.79827        40.33364        -0.82138
C         46.64201        39.65198        -1.11667
C         47.81171        41.75707        -0.50870
C         46.53275        42.52545        -0.29212
C         47.56091        44.02634         1.55563
C         46.46550        43.49380         0.87176
C         46.62584        47.12170         0.96048
C         45.83011        46.22582         1.38243
C         50.26162        28.97701         1.44520
C         49.03956        29.30561         0.81064
C         50.30790        31.60140         0.84288
C         49.19623        30.73564         0.15905
C         50.45237        33.03472         0.26422
C         49.10668        33.81551         0.39235
C         50.50284        35.85271        -0.57371
C         49.10419        35.23511        -0.22087
C         50.47120        37.40723        -0.61016
C         49.17328        38.14378        -0.57656
C         50.40899        40.39347        -0.91889
C         49.12284        39.63683        -0.66337
C         50.35646        41.88686        -0.66577
C         48.98404        42.45917        -0.51279
C         50.14418        44.07677         1.48321
C         48.86321        44.15587         0.96492
C         51.39322        29.48343         1.59588
C         52.67203        31.80718         1.54869
C         51.48377        30.95211         1.60610
C         52.68630        33.00526         1.26017
C         51.61886        33.90268         0.82138
C         52.85247        36.14433         0.15289
C         51.65075        35.30856         0.35294
C         52.77453        37.27214        -0.34932
C         51.64176        38.12241        -0.60571
C         52.67067        40.40288        -0.05614
C         51.77526        39.57630        -0.95241
C         52.63462        41.63507         0.09370
C         51.53864        42.55007         0.05953
C         51.15718        43.59784         0.83862
O         34.42190        33.11316        -1.33317
O         39.90856        42.69458        -2.22878
O         38.59076        26.43542        -0.88342
O         42.85497        41.55764        -2.14468
O         40.58077        44.60217         2.98290
O         45.07683        40.28527        -2.82570
O         42.20128        30.95365        -1.88460
O         38.63282        28.98594        -1.69135
O         51.29362        34.98963         1.70564
O         45.24852        31.93756        -2.20646
O         39.02374        38.84884         0.28998
O         46.33448        37.77234        -2.78913
O         50.36161        31.56893         2.29305
O         34.36613        38.73935         1.03737
O         35.10071        31.58307         1.85167
O         35.30116        29.14333        -0.79918
O         43.73968        33.43748         0.54795
O         38.54719        35.82972         0.53828
O         43.47816        35.97927         0.05064
O         48.42667        36.55634        -2.20570
O         37.02629        39.79149        -2.41710
O         40.45587        45.55781        -0.46870
O         47.62243        33.26211        -1.94119
O         34.74639        44.59807        -2.13665
O         38.19252        43.25748         1.11027
O         48.91620        35.03002         1.20159
O         31.78523        38.02034        -0.90529
O         49.06550        38.93959         0.64937
O         40.77826        35.24119        -2.51534
O         32.82350        41.83069        -1.83465
O         50.45168        41.33534        -2.03046
O         46.89461        29.72247        -0.97075
O         43.50704        28.36834        -0.90103
O         45.92826        42.89559        -1.57910
O         43.50707        37.50019        -3.12584
O         40.93643        26.91482         3.06153
O         32.18893        38.98285         2.96757
O         36.39643        34.85896        -2.30052
O         40.57326        37.74870        -2.82710
O         48.85918        43.84631        -0.43214
O         33.35784        41.07960         1.69172
H         33.34221        40.34637         2.35982
O         50.72968        32.93174        -1.12932
H         50.32842        32.10987        -1.50768
O         43.55381        44.78711         3.81336
H         44.05941        45.10829         4.58903
O         40.39261        33.33460         1.24099
H         40.39452        34.30419         1.39516
O         38.00113        45.08005         3.18333
H         38.75014        44.77174         3.74575
O         35.92725        40.92773         0.79647
H         35.78430        40.23409         1.47893
O         35.11978        41.36267        -2.69221
H         34.60665        42.03277        -3.19101
O         37.45881        32.56137        -1.92770
H         37.05701        33.34855        -2.41803
O         47.44588        44.43835         2.84275
H         46.63095        44.04234         3.23561
O         42.74269        46.40471         0.63656
H         41.97168        46.24946        -0.00120
O         50.86620        35.42775        -1.88674
H         50.21029        35.78117        -2.52989
O         37.68311        42.14008        -2.88237
H         36.97572        41.55721        -3.25338
O         49.61005        30.52467        -1.19936
H         48.87193        30.09325        -1.68710
O         52.26358        39.59451        -2.27290
H         52.11393        40.49338        -2.64704
O         38.06709        31.94222         1.63549
H         37.31665        32.50220         1.95082
O         40.95255        40.32752         0.42406
H         40.44749        39.62463         0.90558
O         36.66833        34.17483         1.29588
H         37.45461        34.77210         1.40745
O         45.15724        43.00023         2.81605
H         44.32284        43.20123         3.30873
O         42.63788        28.80058         2.60802
H         42.19263        28.37550         3.37881
O         46.85916        33.49032         1.13339
H         47.12694        34.38862         1.45940
