         276
 CSIRO Nanostructure Databank - Neutral Graphene Oxide Data Set
C        -10.86930         0.52739         1.32617
C         -9.63886         1.39956         1.11906
C         -8.74361         0.70735         0.08284
C         -7.65952         1.49593        -0.59580
C         -6.42470         0.79371        -1.20226
C         -5.12211         1.54940        -1.34450
C         -3.80334         0.84955        -1.82012
C         -2.49324         1.49282        -1.34934
C         -1.27640         0.74449        -0.85598
C         -0.24226         1.55891        -0.11730
C          0.90815         0.87325         0.57309
C          2.22182         1.61709         0.44948
C          3.49943         0.85312         0.53765
C          4.76804         1.58200         0.91068
C          6.03375         0.78745         1.06164
C          7.36016         1.52450         1.08628
C          8.55073         0.62390         1.33040
C         10.36782         1.63311         0.34608
C         11.31996         0.60819        -0.09685
C         -9.96931         2.85119         0.70125
C         -8.69478         3.65653         0.46017
C         -7.63643         2.97447        -0.34497
C         -6.35436         3.71390        -0.62695
C         -5.08013         2.85826        -0.51502
C         -3.76150         3.64993        -0.61023
C         -2.49611         2.95662        -0.98216
C         -1.20215         3.69557        -1.36974
C         -0.14494         3.05678        -0.45048
C          1.06975         3.83753        -0.06909
C          2.26288         3.15358         0.62323
C          3.58932         3.71317         0.08910
C          4.85355         3.02774         0.56082
C          6.17738         3.60901         0.11297
C          7.48309         2.88514         0.42788
C          8.71097         3.52085        -0.32907
C         10.03013         2.74597        -0.34163
C         -8.60704         4.96755         0.78354
C         -7.30114         5.73451         0.74295
C         -6.29620         5.15505        -0.25344
C         -4.98169         5.89082        -0.25301
C         -3.73147         5.15738        -0.56152
C         -2.38651         5.77843        -0.28395
C         -1.25868         5.23400        -1.12956
C          0.00467         6.01063        -0.98733
C          1.20747         5.30075        -0.45174
C          2.48795         6.03439        -0.26271
C          3.70800         5.17545        -0.19916
C          4.97252         5.85641         0.23572
C          6.24486         5.10545         0.00314
C          7.53773         5.82521         0.13193
C          8.84599         5.00375         0.16532
C         -7.33580         7.25083         0.58662
C         -6.15581         7.94379         0.59447
C         -4.91138         7.11089         0.61696
C         -3.58163         7.58105         1.09045
C         -2.28196         7.08432         0.47197
C         -1.19384         8.09476         0.05542
C         -0.02780         7.50447        -0.69827
C          1.31714         8.13624        -1.12003
C          2.61726         7.49473        -0.61831
C          3.80130         8.16881         0.02343
C          4.96956         7.31759         0.51554
C          6.32635         8.03283         0.67100
C          7.53576         7.16673         0.31789
C         -6.06914         9.38019         0.32284
C         -4.96460        10.18096         0.24214
C         -3.60121         9.83288         0.64289
C         -2.40353        10.26766         0.17930
C         -1.10608         9.57332         0.63144
C          0.10448        10.21478        -0.03078
C          1.37490        10.18522         0.36080
C          2.65201        10.50543         0.51690
C          3.87132         9.59020         0.61366
C          5.16189        10.14763         0.02399
C          6.27827         9.39818         0.00782
C        -10.78847        -0.81347         1.35960
C         -9.43630        -1.49146         1.25750
C         -8.64246        -0.77109         0.15946
C         -7.46063        -1.46921        -0.46081
C         -6.38183        -0.72227        -1.21043
C         -5.07142        -1.44630        -1.59180
C         -3.74408        -0.70292        -1.62693
C         -2.47773        -1.46984        -1.19597
C         -1.11787        -0.78552        -0.86354
C         -0.31926        -1.38983         0.30590
C          0.87007        -0.62647         1.00436
C          2.21789        -1.37752         0.98895
C          3.50112        -0.63540         0.77475
C          4.72735        -1.35397         0.21352
C          6.02316        -0.66475         0.67824
C          7.30847        -1.35323         0.28657
C          8.60870        -0.75916         0.77880
C          9.85842        -1.45335         0.32147
C         11.07776        -0.72997        -0.05469
C         -9.41556        -2.99516         1.03061
C         -8.30785        -3.64223         0.55935
C         -7.10201        -2.75002         0.26039
C         -5.86997        -3.44811        -0.27008
C         -5.02068        -2.96084        -1.41148
C         -3.74086        -3.76504        -1.40364
C         -2.50994        -3.00226        -1.00391
C         -1.44794        -3.70766        -0.21894
C         -0.30269        -2.88948         0.33826
C          0.91158        -3.67347         0.79803
C          2.18926        -2.90126         1.01268
C          3.53501        -3.59883         0.94860
C          4.77901        -2.82521         0.64623
C          5.98096        -3.56716         0.13050
C          7.28796        -2.82417         0.05109
C          8.54534        -3.59139         0.49096
C          9.78770        -2.80288         0.13446
C         -8.15810        -5.09958         0.66721
C         -7.31498        -5.99166         0.02634
C         -6.58688        -5.56862        -1.24206
C         -5.15645        -6.07378        -1.44596
C         -3.86655        -5.28692        -1.33508
C         -2.80474        -5.98977        -0.46549
C         -1.48097        -5.21098        -0.20096
C         -0.12326        -5.87884        -0.30258
C          1.03752        -5.11721         0.28937
C          2.26125        -5.89437         0.72719
C          3.53782        -5.11636         0.90976
C          4.87667        -5.83179         0.78759
C          6.04136        -5.04594         0.24143
C          7.34782        -5.71318        -0.05777
C          8.50146        -5.01560        -0.03051
C         -7.11111        -7.29209         0.67271
C         -6.44188        -8.37823         0.15399
C         -4.98162        -7.52115        -1.22209
C         -3.81344        -8.17466        -1.04699
C         -2.57153        -7.49468        -0.62258
C         -1.26041        -8.19312        -0.42265
C         -0.03073        -7.35408        -0.79201
C          1.35815        -8.01737        -0.51381
C          2.28431        -7.43959         0.58025
C          3.65374        -7.95198         0.02938
C          4.93351        -7.31483         0.56161
C          6.31132        -7.97130         0.25720
C          7.19163        -7.08899        -0.67347
C         -5.93850        -9.47841         0.99103
C         -4.77451       -10.20773         0.98389
C         -3.62201       -10.11271         0.08465
C         -2.30357       -10.33356         0.33755
C         -1.23900        -9.73841        -0.59777
C          0.14023       -10.26319        -0.28947
C          1.27603        -9.52305        -0.29219
C          2.56854       -10.17489        -0.16772
C          3.72187        -9.45860        -0.05313
C          5.02036       -10.08035        -0.23308
C          6.17872        -9.39152        -0.22508
O          2.94590         1.22519        -0.76572
O         -1.03841        -2.06885         1.34339
O         -1.77837        -4.46534         1.00732
O          2.74224        -5.57531         2.05408
O         -6.07276         1.48394        -2.43417
O          4.98443        -6.76251         1.90739
O         -2.68701        -3.54166        -2.36065
O          7.37591        -1.88636        -1.07329
O          1.36650        -3.39883         2.12503
O         -1.39195         1.18383        -2.23361
O         -0.63499         5.85663        -2.29617
O          3.73777         7.95259        -1.42253
O         -0.10311         3.79374         0.80192
O         -1.89930         5.83586         1.09971
O         -6.14610        -8.33113        -1.22817
O         -2.82894         3.16138         0.42157
O          3.53514        -7.45393        -1.35640
O          7.50634         2.75060         1.88399
O          5.94660        -0.26550         2.06831
O         -5.38907        -2.37390        -2.66698
O         -9.48889        -0.13871        -0.84186
O          1.56255         5.95689         0.84861
O         -1.99519        -7.85896         0.76372
O         -1.14204         8.13623        -1.39410
O         -4.40193         5.93925        -1.59538
O         -2.80656        -1.20876        -2.59002
O         -6.59705        -2.28886         1.56430
O          6.10513         4.25138        -1.18522
O          5.62304        -4.37924        -1.04025
O         -8.23194         2.41890        -1.56754
O          3.07696        -0.94711         2.10601
O         -0.18225         1.47759         1.33100
O         -3.90845        -9.55968        -1.17292
O         -4.30861        -5.75210        -2.62617
O          4.71180         2.61473         1.94250
O         -6.62076         4.75073        -1.61018
O          3.66959         4.18573        -1.27686
O          0.81405        -5.10978        -1.15296
O          9.73733         1.33656         1.56098
O         -3.53249         8.87043         1.67791
O          1.36465         8.84817        -2.10176
O          4.76788         6.37152         1.60457
O         -7.12797        -4.80860        -2.02636
O          2.15184        -7.81074        -1.75139
O          4.44656        -3.12865         2.01191
O         -7.48130        -1.40850        -1.89184
O         -4.32625         6.70413         1.92627
O          8.45790        -0.48816         2.23217
O         -6.66801         5.44717         2.02627
H         -7.16225         5.91488         2.73089
O          9.33577         5.00049         1.50456
H          8.81946         4.35322         2.03471
O          1.94170        -8.00579         1.83208
H          2.34684        -7.44250         2.53248
O         -3.76430         1.05769        -3.23563
H         -4.66499         0.89550        -3.59885
O          2.20604         3.46969         2.01002
H          1.25945         3.58019         2.25782
O         -5.18147         2.36383         0.85317
H         -4.37076         2.62968         1.34892
O         -0.18372        -7.27938        -2.22616
H          0.54838        -6.72149        -2.57715
O         -1.51993       -10.06994        -1.96695
H         -0.92873        -9.53485        -2.53861
O          8.45603        -3.68114         1.93674
H          8.60328        -2.79133         2.32728
O         -8.80651        -1.23903         2.55276
H         -7.90613        -1.65456         2.53054
O         -0.94889         9.55566         2.03563
H         -1.80890         9.30818         2.44457
O          8.44744         3.50869        -1.74149
H          7.61437         3.99837        -1.94526
O          6.49483         8.28796         2.09864
H          6.25795         7.45127         2.56284
O          6.60560        -6.96277        -1.96929
H          6.11369        -6.11572        -2.03124
O         -8.91521         1.50128         2.36625
H         -8.83690         0.58118         2.73349
O         -0.25093        -1.08681        -1.97494
H         -0.70053        -0.75056        -2.78696
O         -0.90175         3.45784        -2.73360
H         -0.68384         4.31831        -3.16512
O         -5.30927        -4.18223         0.54540
H         -6.09244        -3.04977         1.94419
O         -3.55410        -5.95792         0.78567
H         -2.97479        -6.31698         1.49469
O          7.07170        -8.06957         1.48334
H          6.55477        -7.63230         2.20081
O          4.02960         9.44132         2.04004
H          4.96157         9.17124         2.24757
O        -10.75388         3.44867         1.72848
H        -10.33433         3.19638         2.57989
O          0.57380        -0.61053         2.39952
H         -0.22909        -0.06753         2.55096
O          4.63458        -1.29903        -1.21410
H          5.47106        -1.65560        -1.59982
H         11.87615        -1.38675        -0.43717
H         12.26205         0.94484        -0.55774
H         10.60187         2.94115        -1.26235
H          9.61004         5.52045        -0.46877
H          8.50655         7.67547         0.43466
H          7.21074         9.80013        -0.41666
H          5.16788        11.15577        -0.41794
H          2.85432        11.50313         0.95521
H         -0.07502        10.52413        -1.07961
H         -2.35498        11.00922        -0.63062
H         -5.11232        11.20162        -0.14500
H         -7.02930         9.84564         0.04485
H         -8.29737         7.77874         0.48758
H         -9.45457         5.42871         1.31730
H        -10.57427         2.84062        -0.24101
H        -11.84136         1.02929         1.44799
H        -11.68687        -1.42953         1.51625
H        -10.29420        -3.58136         1.34348
H         -8.75535        -5.52831         1.49241
H         -7.43190        -7.34991         1.72561
H         -6.56606        -9.63914         1.88585
H         -4.63040       -10.86907         1.85493
H         -1.97398       -10.73148         1.30797
H          0.23476       -11.35352        -0.16341
H          2.60698       -11.27240        -0.23620
H          5.02579       -11.15228        -0.48329
H          7.12391        -9.91384        -0.43380
H          8.19118        -7.58136        -0.78177
H          9.44154        -5.49310        -0.34727
H         10.67203        -3.34933        -0.22916
