         576
 CSIRO Nanostructure Databank - Neutral Graphene Oxide Data Set
C          5.94573        19.00462         0.04332
C          5.82934        20.44534         0.19840
C          4.80214        21.20724        -0.54719
C          6.01795        23.37094        -0.12078
C          4.87215        22.53994        -0.69534
C          6.19787        24.57128        -0.99335
C          8.38861        14.69765         0.28021
C          8.14939        16.05338         0.76782
C          7.16315        16.93188         0.14966
C          8.08728        18.98633         1.38528
C          7.02576        18.25619         0.54673
C          8.38016        20.25835         0.53737
C          7.15301        21.17480         0.50735
C          8.52783        23.04859        -0.27972
C          7.28241        22.53272        -0.01620
C          8.66226        24.39180        -0.79116
C          7.50101        24.92975        -1.60425
C          8.57006        27.20851        -1.35800
C          7.45767        26.42401        -1.64758
C          8.54047        28.62383        -1.47645
C         10.79121        10.46804         0.55794
C         10.78814        11.85176         0.64180
C          9.64221        12.60345         0.27092
C         10.65787        14.60848         1.30658
C          9.55309        13.97943         0.56874
C         10.36565        15.79681         1.92435
C          9.21042        16.67583         1.65571
C         10.75270        18.93300         1.73613
C          9.39961        18.19550         1.70326
C         10.80518        20.35660         1.24435
C          9.66571        20.99894         0.80716
C         11.00967        23.10544         0.24978
C          9.75227        22.30539         0.10239
C         11.00497        24.56538         0.01027
C          9.79908        25.14866        -0.55659
C         10.96965        27.27897        -0.81750
C          9.81223        26.55743        -0.92193
C         11.00614        28.63690        -1.39892
C          9.73045        29.39205        -1.48822
C         10.97766        31.55218        -1.62110
C          9.75416        30.78111        -1.60906
C         10.95086        32.95918        -1.70786
C         13.27545         6.17584        -0.00518
C         13.20562         7.59998         0.27580
C         12.03316         8.27562         0.38682
C         13.25220        10.45339         0.72614
C         11.98892         9.66827         0.97306
C         13.23383        11.86772         0.90198
C         12.00327        12.57964         1.03313
C         13.23143        14.63784         1.62275
C         11.97300        13.94713         1.37150
C         13.33238        16.09631         1.79946
C         12.22130        16.90686         2.11674
C         13.31268        18.95536         1.50523
C         12.09749        18.25257         1.74196
C         13.30813        20.40507         1.41381
C         12.08531        21.05082         1.25144
C         13.33727        23.31518         1.27329
C         12.07056        22.52631         1.11659
C         13.39663        24.69365         0.70883
C         12.16822        25.28691         0.18948
C         13.47595        27.38532        -0.38739
C         12.13962        26.77839        -0.00876
C         13.45809        28.82705        -0.68618
C         12.30857        29.41602        -1.37904
C         13.49761        31.56762        -1.70300
C         12.22235        30.87633        -1.49972
C         13.50761        33.06647        -1.75550
C         12.18279        33.77024        -1.72748
C         13.44411        35.93280        -1.29923
C         12.14183        35.17234        -1.12082
C         13.45266        37.36935        -1.43826
C         15.73064         6.23511        -0.01763
C         14.46269         5.51545        -0.03157
C         15.72492         7.61199         0.15168
C         14.49184         8.29602         0.67251
C         15.62526        10.54061         0.21960
C         14.44010         9.79032         0.44519
C         15.67406        11.89116         0.59715
C         14.46784        12.56828         0.99265
C         15.73716        14.58307         1.70124
C         14.44051        13.92705         1.42833
C         15.78890        16.09019         1.72859
C         14.52823        16.82680         1.59190
C         15.81787        18.96863         1.59984
C         14.54302        18.24418         1.53516
C         15.80264        20.43087         1.61141
C         14.56754        21.13509         1.46962
C         15.81115        23.27204         1.36172
C         14.60061        22.56007         1.40701
C         15.80993        24.78963         1.43587
C         14.57804        25.38735         0.77533
C         15.85682        27.59008         0.73937
C         14.70317        26.74658         0.18299
C         15.91408        29.00905         0.15690
C         14.64218        29.62328        -0.48543
C         16.06396        31.61981        -1.26974
C         14.77224        30.84484        -1.33540
C         16.00114        33.10275        -1.19856
C         14.64298        33.76488        -1.00066
C         15.89450        35.96878        -1.48824
C         14.63365        35.24834        -1.28784
C         15.90526        37.43901        -1.44700
C         14.62074        38.08828        -1.47772
C         18.21619         6.16004        -0.36932
C         16.95890         5.54392        -0.24650
C         18.27930         7.70293        -0.21925
C         16.90699         8.37250        -0.30756
C         18.04419        10.74018        -0.64796
C         16.82257         9.87259        -0.35084
C         18.12353        12.01169         0.16237
C         16.96207        12.56164         0.66896
C         18.31706        14.56637         1.44479
C         17.01051        13.82670         1.42299
C         18.31164        16.05794         1.70069
C         17.04817        16.79905         1.28794
C         18.28674        18.95777         1.90338
C         17.01656        18.27310         1.61655
C         18.28481        20.48252         1.94138
C         17.01537        21.16626         1.64827
C         18.29422        23.30110         1.44935
C         17.03769        22.57645         1.46514
C         18.32475        24.69254         1.12071
C         17.11893        25.42655         0.96632
C         18.36149        27.49441         0.40386
C         17.16129        26.81745         0.65168
C         18.39088        28.89276         0.06387
C         17.19500        29.58901        -0.18002
C         18.44041        31.73276        -0.31956
C         17.35788        30.87426        -0.95999
C         18.33766        33.15884        -0.29246
C         17.19982        33.82808        -0.72257
C         18.35339        36.07893        -0.75993
C         17.22802        35.24589        -1.09186
C         18.36442        37.44281        -1.13400
C         17.11944        38.10991        -1.42814
C         20.62649         5.71407        -0.79176
C         19.35305         5.31812        -0.26749
C         20.56878         7.94274        -1.35244
C         19.34024         8.57010        -0.92122
C         20.54576        10.71918        -1.00615
C         19.33056         9.93290        -0.71307
C         20.58023        12.15271        -0.51462
C         19.38781        12.72749         0.18372
C         20.79968        14.62637         1.17354
C         19.49300        13.95741         0.79155
C         20.74966        16.13878         0.90993
C         19.59089        16.81054         1.61539
C         20.76645        18.98026         1.69600
C         19.58189        18.29574         1.63770
C         20.80824        20.44584         1.78951
C         19.56815        21.19826         1.78846
C         20.73961        23.39456         1.89753
C         19.51914        22.59996         1.68210
C         20.74654        24.83016         1.52200
C         19.60267        25.39132         1.01485
C         20.90223        27.53830         0.38615
C         19.63667        26.70287         0.24976
C         20.87041        28.90600         0.17344
C         19.63211        29.62291         0.02139
C         20.84978        31.81048         0.35059
C         19.63180        31.06123         0.01137
C         20.80685        33.27427         0.35535
C         19.50712        33.94472         0.16616
C         20.80079        36.12573        -0.26077
C         19.50532        35.46761        -0.08746
C         20.81973        37.46129        -0.80081
C         19.60255        38.13263        -1.10386
C         23.05447         6.14095        -1.28076
C         21.93214         5.42178        -0.51425
C         23.05922         7.67571        -0.87715
C         21.82544         8.49778        -1.26449
C         23.20627        10.71593        -1.16288
C         21.86647         9.97190        -1.24934
C         23.14658        11.92567        -0.23953
C         21.91975        12.78019        -0.23513
C         23.23160        14.71423         0.61862
C         22.02559        14.03341         0.54027
C         23.25621        16.13761         0.98132
C         22.06892        16.81175         1.19834
C         23.37920        18.94643         1.64387
C         22.04468        18.20380         1.66274
C         23.40210        20.45974         1.80733
C         22.02669        21.11572         1.70568
C         23.26784        23.28394         1.41854
C         22.06828        22.56928         1.86915
C         23.28997        24.73309         1.80695
C         22.02626        25.61271         1.58570
C         23.09352        27.45276         1.76860
C         22.20631        26.79924         0.60229
C         23.19192        28.93196         2.07453
C         22.10421        29.73403         0.04049
C         23.38282        31.87503         0.69870
C         22.05725        31.14338         0.48221
C         23.20193        33.39416         1.08891
C         21.96399        34.03350         0.46219
C         23.23010        36.09637        -0.24188
C         21.98655        35.43520         0.04565
C         23.27367        37.42581        -0.77396
C         22.05925        38.10089        -1.01718
C         25.58938         6.13601        -0.99790
C         24.39067         5.47946        -0.99116
C         25.61848         7.61578        -1.17921
C         24.35283         8.39935        -1.22621
C         25.61642        10.46229        -0.60726
C         24.41147         9.84598        -0.86675
C         25.75342        11.86150        -0.03877
C         24.43522        12.57923         0.14632
C         25.67647        14.74715         0.20471
C         24.46407        14.04587         0.31072
C         25.70367        16.17112         0.40875
C         24.50118        16.86997         0.82520
C         25.56672        19.05109         0.38979
C         24.49995        18.25736         0.99831
C         25.63259        20.51924         0.57045
C         24.48294        21.17678         1.01639
C         25.61001        23.35479         0.56642
C         24.40635        22.61223         1.02488
C         25.63694        24.82792         0.75798
C         24.47200        25.50960         1.32237
C         25.72321        27.54241         1.87920
C         24.45228        26.83308         1.61208
C         25.73933        29.01719         1.84151
C         24.46837        29.66345         1.71838
C         25.69993        31.68592         1.76994
C         24.44186        31.06844         1.54687
C         25.68405        33.76285         1.18070
C         24.44952        34.19972         0.72933
C         25.70547        36.04640        -0.28616
C         24.45655        35.42260         0.00807
C         25.73997        37.37615        -0.83534
C         24.53138        38.04437        -1.05142
C         28.08598         6.15650        -1.00230
C         26.86823         5.47367        -0.90642
C         28.11753         7.59181        -1.01998
C         26.85430         8.28210        -0.60963
C         28.06246        10.46229        -0.98412
C         26.86115         9.76480        -0.77290
C         28.07287        11.91193        -0.92170
C         26.77883        12.69622        -0.80303
C         28.11401        14.75087        -0.08289
C         26.90196        14.08275        -0.16794
C         28.18369        16.16967         0.21453
C         26.92554        16.85864         0.26863
C         28.09621        19.08204        -0.05744
C         26.86065        18.30966         0.05548
C         28.03454        20.52939        -0.14149
C         26.84853        21.19954         0.20620
C         28.04039        23.43707        -0.20838
C         26.96020        22.66031         0.59527
C         28.16029        24.88774         0.27133
C         26.93439        25.56705         0.77722
C         28.30616        27.49738         1.69509
C         26.99603        26.77661         1.65400
C         28.28165        29.00969         1.70511
C         26.96770        29.69604         1.63694
C         28.17105        31.89763         1.21390
C         26.97016        31.11081         1.55992
C         28.12376        33.27390         0.74406
C         26.93244        34.08604         0.59585
C         28.14053        35.89264        -0.57839
C         26.92466        35.33861        -0.08161
C         28.20826        37.30983        -0.87833
C         27.02251        38.00812        -1.03674
C         30.54656         6.14507        -1.14065
C         29.36294         5.46991        -0.99105
C         30.56882         7.59634        -1.58672
C         29.29161         8.32652        -1.22764
C         30.55634        10.48125        -1.52274
C         29.28119         9.73667        -1.19573
C         30.53755        11.91246        -1.05353
C         29.27950        12.57765        -0.89971
C         30.44318        14.63819        -1.14034
C         29.37418        13.95286        -0.27789
C         30.77442        16.49763         0.32982
C         29.38946        16.96893         0.21549
C         30.45090        19.12884        -0.67007
C         29.29445        18.36839        -0.04265
C         30.45688        20.50267        -0.05963
C         29.29478        21.28085        -0.18055
C         30.55074        23.43842        -0.36826
C         29.37477        22.71645        -0.14399
C         30.62449        24.84696         0.05939
C         29.49109        25.44820         0.59351
C         30.80760        27.56265         1.17607
C         29.54637        26.73838         1.31027
C         30.69316        29.04968         1.16874
C         29.51177        29.75070         1.32406
C         30.61412        31.93567         0.83491
C         29.41643        31.20462         1.10555
C         30.59989        33.28916         0.47470
C         29.31373        33.85272         0.19356
C         30.68857        36.35667         0.79627
C         29.24511        35.02805        -0.62254
C         30.60884        37.56354        -0.12066
C         29.50093        37.99547        -0.81410
C         32.98987         6.16740        -0.90854
C         31.82087         5.47488        -1.00519
C         33.02123         7.61995        -0.88489
C         31.80697         8.34484        -1.12611
C         32.98193        10.45652        -0.72145
C         31.80384         9.73975        -1.07203
C         32.98964        11.89330        -0.67196
C         31.75348        12.60107        -0.87746
C         32.95857        14.75582        -0.71440
C         31.79211        14.03877        -0.89632
C         32.96413        16.23860        -1.04085
C         31.84310        17.07872        -0.39605
C         32.98547        19.16243        -0.99026
C         31.80304        18.46668        -0.71411
C         33.09268        20.61081        -1.17082
C         31.91665        21.43703        -1.63613
C         33.07272        23.54748        -0.95594
C         31.75937        22.84153        -1.03714
C         33.12167        24.96198        -0.45194
C         31.88177        25.60393         0.06006
C         33.25815        27.64971         0.73743
C         31.95576        26.90415         0.50656
C         33.16207        29.10140         0.33817
C         31.89103        29.78662         0.70148
C         33.19483        31.97082         0.69560
C         31.92019        31.24971         0.94757
C         33.12869        33.35566         0.09713
C         31.83684        34.08666         0.42520
C         33.12738        36.19513         0.34951
C         31.87615        35.46294         0.52374
C         33.05394        37.62083         0.10191
C         31.88027        38.25958        -0.19262
C         34.19722         8.30822        -0.60360
C         35.37311        10.43366        -0.15319
C         34.21296         9.73626        -0.48304
C         35.33047        11.88310         0.22769
C         34.14639        12.62477        -0.33435
C         35.38511        14.76882        -0.13273
C         34.17701        14.05179        -0.38937
C         35.44219        16.19530        -0.20791
C         34.30057        16.92784        -0.81644
C         35.35320        19.15330        -0.01757
C         34.27092        18.41742        -0.82678
C         35.53544        20.52185        -0.71897
C         34.28838        21.28048        -1.02968
C         35.53947        23.27531        -0.24294
C         34.40546        22.81120        -1.22369
C         35.65431        24.78244         0.12575
C         34.43850        25.59513        -0.21041
C         35.68072        27.67217         0.06176
C         34.50266        26.99966         0.23416
C         35.68365        29.15629        -0.20061
C         34.43666        29.86585         0.26335
C         35.69859        31.97223         0.34915
C         34.44597        31.21783         0.38643
C         35.61499        33.40901         0.42496
C         34.41628        34.10790         0.37174
C         34.34930        35.53333         0.36750
C         36.61808        12.62176         0.03999
C         37.82313        14.73760         0.29452
C         36.63195        14.02687         0.07135
C         37.78848        16.18053         0.68906
C         36.59715        16.91315         0.12214
C         37.85560        19.01256         0.25371
C         36.65786        18.34907         0.04887
C         37.88205        20.49691         0.29126
C         36.85035        21.20088        -0.53992
C         38.11099        23.38494        -0.04411
C         36.92106        22.71664        -0.71112
C         38.15467        24.80766        -0.06416
C         36.93364        25.53473        -0.15916
C         38.16856        27.66410         0.01966
C         36.92945        26.94395        -0.09816
C         38.13857        29.10983         0.18102
C         36.96964        29.85077         0.18249
C         36.90991        31.27916         0.33478
C         39.08572        16.88675         0.42584
C         40.33125        19.00380         0.50187
C         39.12203        18.29182         0.38028
C         40.38053        20.42587         1.01805
C         39.13795        21.22870         0.64903
C         40.50842        23.34427         0.40971
C         39.25577        22.66904         0.29290
C         40.57260        24.73409         0.27464
C         39.38806        25.50977         0.10781
C         39.36784        26.93616         0.11643
C         41.65637        21.17524         0.71591
C         41.70321        22.51238         0.53986
O         38.05577        21.04524         1.64349
O         21.21892        13.02916        -1.50866
O         30.12275        15.32457        -2.09209
O         16.54906         9.05898        -1.56498
O         12.35191        23.22547         2.36942
O         28.45502        28.22949         2.93617
O         25.34726        24.23088        -0.56838
O         22.87797        18.33822         2.87586
O         13.00672        33.69471        -2.95816
O         32.23910        23.66011        -2.17210
O          9.96497        18.70289         2.95352
O         26.38728        26.76508         2.96794
O         36.54499        20.48398        -1.78162
O         19.05805        16.34824         2.91501
O         25.87183        18.65393        -0.98477
O         31.34799        21.17276        -2.68966
O         32.20533        29.42480        -0.71244
O         21.06386        10.52716        -2.35514
O         35.81466        24.89038         1.54086
O         21.45661        23.05685         3.10421
O         22.28310        29.53111         2.63516
O         34.89172        19.34548         1.26483
O         23.62964        11.80197         1.12964
O         11.22112        16.32061         2.88655
O         22.20207        26.65299         2.69444
O         14.28901        30.76977        -2.69150
O         30.50658        26.81879         2.40929
O         25.68401        32.96145         2.30849
O         23.12567        29.26284        -0.50831
O         17.87572        13.77452         2.60417
O         29.95889        36.22443         1.76261
O         16.20520        32.43989        -2.48188
O         20.42830         6.64668        -1.83954
O         33.85911        25.66889        -1.55303
O         14.44254        26.68526        -1.26370
O          8.00171        16.18728         2.27844
O         25.07891         8.06844        -2.45127
O         19.20761        34.90084         1.23717
O         15.03084        29.92075         0.92245
O         27.41495        25.85097        -0.58281
O         15.82390        15.31917         2.96113
O         32.73810        31.76790         2.06630
O         34.75681        17.71110        -2.00369
O         10.79170        22.30365        -0.96162
O         16.77070        35.40989        -2.49329
O         18.25152        19.68527         3.17660
O         11.83301        28.69055        -2.60516
O          6.13983        21.01236         1.52474
O          8.56054        19.76792        -0.83151
H          8.95338        20.48927        -1.37039
O          5.63923        23.75601         1.23220
H          5.56892        22.91595         1.74671
O         35.18843        22.60484         0.97816
H         35.48885        23.21746         1.71012
O         26.24925        12.89818        -2.13174
H         26.92166        13.35944        -2.67518
O         15.72019        25.08995         2.86093
H         15.67083        26.07506         2.94755
O         17.88618        11.21311        -2.01670
H         17.57145        10.44428        -2.54624
O         32.67129        16.28931        -2.45485
H         33.24198        16.99701        -2.84219
O         30.24821        35.24504        -1.51560
H         30.05975        36.05766        -2.02919
O         29.81943        13.60234         1.08024
H         29.14857        12.98522         1.44567
O         17.89600        30.44712        -2.25273
H         17.63088        31.13616        -2.90631
O         37.60615        16.18636         2.17069
H         38.41372        15.79571         2.56714
O         22.86160         6.01902        -2.69624
H         21.92867         6.26680        -2.89383
O         31.44720        20.82412         0.79904
H         31.24004        21.65753         1.27286
O         26.72321         8.05458         0.84609
H         27.43573         8.55784         1.29425
O         18.66164         7.85728         1.19041
H         18.00481         7.37360         1.73698
O         33.41611        27.69249         2.19290
H         33.69612        26.80458         2.50357
O         30.61844        10.54597        -2.98751
H         31.40502        11.07854        -3.23024
O         14.56437         8.16697         2.13930
H         13.73388         8.56489         2.50160
O         33.08615        33.12324        -1.34608
H         33.05714        33.99566        -1.79139
O         31.15975        15.62096         1.26647
H         30.40864        15.12310         1.67054
O         19.64390        26.26450        -1.16077
H         19.56584        27.06526        -1.72310
O         23.81028        20.70968         3.18731
H         23.31063        20.07116         3.74825
O         26.31327        11.68903         1.29325
H         25.57397        11.38527         1.86794
O         27.69059        23.42795        -1.59605
H         27.12521        24.22029        -1.75903
O         11.91911        27.36343         1.33176
H         11.16221        26.89646         1.74650
O         35.63185        29.24819        -1.67090
H         36.34414        28.67647        -2.02853
O         23.52521        24.62444         3.24033
H         23.13724        25.43216         3.65910
O         27.41317        22.69453         1.97964
H         26.72532        22.28110         2.54507
O         29.95749        19.17023        -2.03291
H         30.60554        19.63174        -2.61978
O         20.95322        14.40232         2.59625
H         20.20649        14.85021         3.06643
O         24.01784        31.87566        -0.60293
H         24.01367        30.93913        -0.92190
O         15.57211        27.73621         2.15858
H         15.07319        28.58236         2.26638
O         20.45988        16.34494        -0.49963
H         21.07067        15.78595        -1.02775
O         22.86989        26.50739        -0.60078
H         23.08720        27.36763        -1.03489
O         35.09837        11.87288         1.71357
H         35.87815        11.43996         2.12294
O         22.97896        33.41004         2.51189
H         22.86271        34.33693         2.80511
O         23.05410         7.72200         0.57918
H         22.28169         7.20766         0.90085
O         11.93627         9.46409         2.44357
H         11.05096         9.10123         2.66033
O         40.36737        20.20349         2.46300
H         39.41707        20.26437         2.73325
O         30.62872         7.55735        -3.04612
H         31.46407         7.11005        -3.29622
O         14.35684        33.58994         0.41539
H         13.49639        34.03896         0.61818
O         17.07676        16.68525        -0.17497
H         16.39332        17.28193        -0.54705
O         23.48638        11.25829        -2.47532
H         22.61690        11.38954        -2.92639
O         37.18125        23.01421        -2.09238
H         36.69932        22.34850        -2.63739
O          7.51375        19.31991         2.64372
H          8.23533        19.33954         3.31284
O         11.90488        34.99084         0.29415
H         11.84477        35.87358         0.71489
O         34.73501        23.05836        -2.59399
H         33.90304        23.32982        -3.05022
O          7.62959        24.35615        -2.96295
H          8.47688        24.67793        -3.33799
H          5.22763        18.50323        -0.62389
H          3.96133        20.64358        -0.98123
H          4.07271        23.07370        -1.23063
H          5.29885        25.12838        -1.29791
H          7.61347        14.22796        -0.34223
H          6.43831        16.49766        -0.55543
H          6.53370        26.90864        -1.99635
H          7.57564        29.12433        -1.64721
H          9.87511         9.94257         0.24691
H          8.77439        12.08808        -0.16519
H          8.80192        31.32350        -1.70740
H          9.98160        33.47899        -1.70456
H         12.33110         5.62770        -0.14207
H         11.07689         7.75578         0.21143
H         11.29026        35.76300        -1.55847
H         12.48725        37.89513        -1.47940
H         14.48868         4.42775        -0.19280
H         14.58717        39.18578        -1.53868
H         16.91956         4.44512        -0.30186
H         17.13205        39.20654        -1.51884
H         19.20530         4.28681         0.09050
H         19.64024        39.18781        -1.41176
H         22.18888         4.70842         0.28221
H         22.07512        39.12313        -1.42290
H         24.38296         4.38358        -0.87501
H         24.53696        39.06899        -1.45104
H         26.87972         4.37402        -0.84821
H         27.04920        39.09047        -1.23332
H         29.37367         4.38760        -0.78641
H         29.57574        38.96022        -1.34619
H         33.93919         5.62902        -0.77182
H         31.82529         4.37700        -0.92542
H         34.00304        38.17038         0.01354
H         31.89343        39.30911        -0.52548
H         35.12756         7.74806        -0.42645
H         36.30608         9.87529         0.02433
H         36.55471        33.97852         0.51055
H         35.28277        36.11709         0.34578
H         37.56574        12.07374         0.16450
H         38.76254        14.17773         0.43031
H         39.09999        29.62131         0.35125
H         37.85266        31.84063         0.43537
H         40.02652        16.32157         0.52075
H         41.26251        18.41864         0.58581
H         41.54827        25.23984         0.33459
H         40.31335        27.47949         0.26833
H         42.59362        20.60195         0.78352
H         42.67966        23.00965         0.43040
