         490
 CSIRO Nanostructure Databank - Neutral Graphene Oxide Data Set
C         37.83886        50.12353         2.51282
C         36.65995        50.80906         2.75966
C         37.81087        52.90974         2.44941
C         36.64601        52.21272         2.72837
C         40.34089        48.68269         2.02205
C         40.28380        50.09826         1.97511
C         39.04302        50.81137         2.22583
C         40.25058        52.95966         1.89134
C         39.02875        52.23382         2.19271
C         40.27512        54.37525         1.85992
C         42.73069        48.68490         1.53937
C         41.52319        47.99949         1.81852
C         42.69577        50.10862         1.44060
C         41.47216        50.81496         1.67534
C         42.64683        52.97222         1.28957
C         41.45433        52.25382         1.61803
C         42.63692        54.39335         1.25661
C         41.42974        55.06966         1.55919
C         45.26678        45.88589         1.67283
C         44.09530        46.56015         1.69510
C         45.13404        48.69666         1.05885
C         43.98895        47.98647         1.40534
C         45.08978        50.11611         0.82454
C         43.88159        50.83026         1.09458
C         45.03317        52.96176         0.62002
C         43.86073        52.25672         0.99279
C         45.02162        54.40158         0.56578
C         43.84079        55.11799         0.90722
C         45.03209        57.21478         0.51931
C         43.87908        56.53286         0.85845
C         47.63445        44.29970         0.48739
C         47.69070        45.76300         0.72783
C         46.54063        46.54393         1.32409
C         47.60471        48.73249         0.42435
C         46.46245        48.03241         1.07822
C         47.37068        50.05658        -0.26982
C         46.22878        50.81787         0.35726
C         47.41179        52.91554        -0.12004
C         46.22907        52.23054         0.28904
C         47.33279        54.35732        -0.35559
C         46.17939        55.11642         0.14854
C         47.47485        57.24802        -0.08246
C         46.21932        56.52712         0.15823
C         47.54806        58.66299         0.10762
C         49.87234        44.37167        -0.52567
C         48.65806        43.67119        -0.14181
C         49.91821        45.74365        -0.45347
C         48.61987        46.48400        -0.23749
C         49.91540        48.61003        -0.43379
C         48.79081        47.96276        -0.02051
C         49.92084        50.08810        -0.75562
C         48.66097        50.82810        -0.36236
C         49.90227        52.96541        -0.52495
C         48.65004        52.21455        -0.33698
C         49.87712        54.33886        -0.65287
C         48.62124        55.11400        -0.65270
C         49.93215        57.25135        -0.41660
C         48.66035        56.56223        -0.38048
C         49.96649        58.69098        -0.25448
C         48.73789        59.35149         0.00515
C         52.25773        41.52070        -0.38725
C         51.10839        42.16543        -0.73417
C         52.37880        44.33973        -0.66888
C         51.09197        43.63189        -1.04349
C         52.39313        45.74364        -0.64375
C         51.15274        46.48065        -0.62500
C         52.41522        48.60133        -0.59464
C         51.16552        47.87911        -0.60124
C         52.43973        50.01790        -0.53279
C         51.16502        50.76888        -0.17668
C         52.37046        52.88905        -0.70069
C         51.17822        52.24184        -0.53596
C         52.40466        54.34216        -0.94343
C         51.10721        55.10351        -0.90727
C         52.43611        57.22359        -0.37942
C         51.11672        56.55400        -0.65120
C         52.43204        58.71281        -0.62768
C         51.19680        59.40921        -0.42947
C         52.41300        61.52311        -0.60017
C         51.23359        60.83435        -0.45335
C         55.05017        40.22882        -0.61723
C         54.66461        41.41600         0.26806
C         53.49562        42.20670        -0.22865
C         54.83084        44.31459        -0.26870
C         53.57706        43.61166        -0.39668
C         54.85804        45.72184        -0.49325
C         53.63702        46.45151        -0.58277
C         54.89506        48.58202        -0.51325
C         53.65131        47.87857        -0.59954
C         54.89955        50.00509        -0.56083
C         53.66805        50.69980        -0.60483
C         54.87445        52.91073        -0.35642
C         53.67989        52.17095        -0.95602
C         54.92578        54.36400        -0.81095
C         53.67900        55.09046        -0.79936
C         54.89420        57.18568        -1.14673
C         53.65051        56.46263        -0.85428
C         54.88906        58.70062        -1.11492
C         53.62619        59.41431        -0.79679
C         54.89887        61.54134        -0.87881
C         53.65923        60.84496        -0.76560
C         54.93030        62.97927        -0.85405
C         57.32695        40.23398         0.30980
C         56.28485        39.67820        -0.55414
C         57.02998        41.45192         0.87237
C         55.89643        42.25250         0.47866
C         57.35336        44.23376        -0.16349
C         56.02040        43.59390         0.14723
C         57.34535        45.66224        -0.66932
C         56.09834        46.44931        -0.52175
C         57.41007        48.56751        -0.13596
C         56.12426        47.83822        -0.47059
C         57.41029        50.03356        -0.48789
C         56.16825        50.75169        -0.54916
C         57.42585        52.94103        -0.38670
C         56.15957        52.14394        -0.55605
C         57.37792        54.24514        -1.20398
C         56.12666        55.04000        -0.94286
C         57.38114        57.19424        -1.05616
C         56.17599        56.47229        -1.05188
C         57.36269        58.63740        -0.99214
C         56.18269        59.37337        -0.93698
C         57.36338        61.53437        -0.96554
C         56.16385        60.83548        -0.90660
C         57.36525        62.99339        -1.15106
C         56.08540        63.68607        -0.96963
C         59.75556        37.38424         0.46960
C         58.59926        38.14141         0.37727
C         59.89328        40.19310         0.57626
C         58.63166        39.55168         0.46158
C         60.13699        41.66632         0.92074
C         58.91923        42.53195         0.89460
C         59.90464        44.32367        -0.35313
C         58.69855        43.63701         0.12500
C         59.89359        45.67578        -0.68859
C         58.62360        46.42604        -1.02127
C         59.86844        48.55431        -0.70420
C         58.66384        47.86241        -0.57193
C         59.88680        50.00517        -0.69286
C         58.65332        50.72266        -0.59048
C         59.87618        52.83468        -0.89528
C         58.67799        52.15187        -0.67662
C         59.87592        54.29334        -1.15010
C         58.63318        55.06315        -1.04182
C         59.91315        57.14301        -0.80302
C         58.64862        56.44516        -1.02557
C         59.86057        58.60685        -0.54170
C         58.68109        59.38637        -1.10050
C         59.92852        61.55896        -0.78148
C         58.61869        60.81971        -0.50915
C         59.93539        62.92890        -0.93495
C         58.68746        63.72375        -1.08266
C         59.96228        65.77968        -0.55668
C         58.77267        65.14862        -0.70569
C         62.25336        35.73494         0.55580
C         62.24635        37.20815         0.65255
C         61.01285        38.00755         0.52848
C         62.38392        40.07583         0.20312
C         61.09451        39.42538         0.49953
C         62.40303        41.50817        -0.09240
C         61.24152        42.25874         0.09979
C         62.36637        44.29168        -0.62181
C         61.15810        43.61891        -0.28808
C         62.35203        45.70260        -0.75399
C         61.12832        46.40071        -0.78896
C         62.35434        48.55284        -0.97073
C         61.11023        47.83884        -0.84880
C         62.34995        50.00303        -0.99349
C         61.11461        50.70933        -0.86061
C         62.36950        52.85179        -0.82904
C         61.12062        52.13894        -0.91242
C         62.40280        54.27141        -0.70454
C         61.19288        55.04974        -0.99888
C         62.35155        57.14327        -0.09182
C         61.11395        56.48128        -0.68200
C         62.42056        58.62733        -0.39806
C         61.14457        59.36371        -0.40954
C         62.40933        61.45215        -0.74946
C         61.16943        60.82006        -0.67269
C         62.48460        62.88870        -1.05018
C         61.18771        63.67893        -1.14129
C         62.44405        65.80153        -0.77649
C         61.23418        65.12978        -0.81428
C         62.53177        67.19593        -0.37855
C         64.71509        35.67906         0.48825
C         63.41767        35.03861         0.57884
C         64.73269        37.07528        -0.10961
C         63.54928        37.90937         0.34644
C         64.75175        39.89172        -0.72422
C         63.52118        39.33076        -0.03166
C         64.83366        41.40462        -0.68998
C         63.59398        42.15760        -0.55627
C         64.79910        44.25516        -1.17173
C         63.57811        43.54645        -0.74458
C         64.88357        45.71456        -0.97661
C         63.63871        46.44832        -0.53635
C         64.84580        48.54165        -1.42841
C         63.56937        47.87083        -0.99999
C         64.84756        50.02327        -1.14620
C         63.58204        50.71387        -0.97400
C         64.86594        52.79131        -0.40577
C         63.58111        52.11149        -0.78688
C         64.85536        54.27603        -0.61491
C         63.63452        54.98406        -0.56482
C         64.84221        57.09876        -0.41117
C         63.63703        56.41549        -0.43123
C         64.89676        58.58116        -0.10281
C         63.60741        59.30260        -0.41625
C         64.87450        61.44966        -0.54314
C         63.65223        60.74805        -0.56468
C         64.89515        62.90019        -0.57638
C         63.73717        63.60746        -0.76921
C         65.04092        65.82822        -0.84811
C         63.73213        65.07973        -0.98491
C         65.03333        67.35363        -0.74206
C         63.69064        67.87814        -0.27624
C         67.04039        33.11310         1.81887
C         65.89241        33.72266         1.39216
C         67.25879        35.54960         0.37273
C         65.89600        35.02767         0.79178
C         67.26949        37.04034        -0.09213
C         66.01061        37.81855         0.32197
C         67.24873        39.84206        -0.48407
C         66.04981        39.23246        -0.27471
C         67.32307        41.24526        -1.07995
C         66.02932        42.02169        -0.92753
C         67.37499        44.21469        -1.12814
C         66.09205        43.47028        -1.23437
C         67.35750        45.67178        -1.17897
C         66.07881        46.37229        -1.04179
C         67.34923        48.55025        -1.17405
C         66.06996        47.86587        -0.78391
C         67.30465        49.99220        -1.60930
C         66.04888        50.71155        -1.17671
C         67.31312        52.82451        -1.00956
C         66.10714        52.11974        -0.93591
C         67.32974        54.25678        -0.78444
C         66.08779        54.96674        -0.65098
C         67.31790        57.07482        -0.45270
C         66.07641        56.38879        -0.54478
C         67.34340        58.53279        -0.38013
C         66.09034        59.25916        -0.79711
C         67.32709        61.39770        -0.24250
C         66.13714        60.74200        -0.49799
C         67.34545        62.82842        -0.01248
C         66.24108        63.60032        -0.68402
C         67.19376        65.67221         0.41881
C         66.19555        65.06460        -0.31548
C         67.18683        67.11796         0.65167
C         66.16280        67.91549         0.09837
C         67.24098        69.91769         0.93941
C         66.21389        69.30801         0.22778
C         69.43066        31.85649         2.95110
C         69.47547        33.16456         2.39705
C         68.31160        33.78360         1.81121
C         69.59791        35.81662         1.35791
C         68.39238        35.09473         1.27536
C         69.60696        37.31454         1.15743
C         68.48300        37.85492         0.31707
C         69.78788        39.87522        -0.17992
C         68.48816        39.16663        -0.05826
C         69.80648        41.34520        -0.50763
C         68.46800        42.06625        -0.41537
C         69.84412        44.15878        -1.03991
C         68.53734        43.50359        -0.90893
C         69.84302        45.71889        -1.17188
C         68.54432        46.40395        -1.09869
C         69.79808        48.60672        -1.09682
C         68.54378        47.86731        -1.10589
C         69.81656        49.99302        -1.23161
C         68.58209        50.74679        -1.32739
C         69.84236        52.90561        -1.40471
C         68.56315        52.12242        -1.22572
C         69.82646        54.29608        -0.80852
C         68.55167        54.96929        -0.70101
C         69.79952        57.17657        -0.40355
C         68.52481        56.37299        -0.49377
C         69.59022        58.31034         0.60000
C         68.45891        59.16705         0.04771
C         69.51713        61.22936         0.94528
C         68.63661        60.64079        -0.14539
C         69.66136        62.74182         0.93547
C         68.35433        63.46778         0.67734
C         69.22291        65.48235         1.82809
C         68.28642        64.88559         0.97945
C         69.27228        66.91592         2.01162
C         68.24582        67.73749         1.37909
C         69.36314        69.83654         2.24117
C         68.25689        69.15065         1.52493
C         69.17298        71.18853         2.78622
C         71.79613        31.93668         3.44269
C         70.56492        31.25434         3.46303
C         71.87049        33.21285         2.91445
C         70.72291        33.85787         2.38448
C         72.00537        35.92722         1.80928
C         70.77568        35.20863         1.87294
C         72.09657        37.20000         1.26067
C         70.95949        37.90665         0.82654
C         72.20420        39.99110         0.29417
C         71.02081        39.23441         0.32398
C         72.21662        41.36606         0.01222
C         71.06311        42.09389        -0.29008
C         72.20948        44.29056        -0.34927
C         71.07319        43.51561        -0.52892
C         72.19185        45.70889        -0.44146
C         71.06346        46.42330        -0.75895
C         72.29288        48.61229        -0.96386
C         71.02650        47.91724        -0.53803
C         72.30331        49.94703        -1.14809
C         71.07538        50.72644        -1.12978
C         72.29096        52.86604        -0.85433
C         71.08818        52.11373        -1.07997
C         72.26469        54.21358        -0.61956
C         71.02619        54.95440        -0.53993
C         72.12589        57.02206         0.36495
C         71.03738        56.35742        -0.13446
C         72.05680        58.40799         0.78247
C         70.86968        59.06632         0.89199
C         71.80501        61.18582         2.06945
C         70.69061        60.42956         1.44784
C         71.65021        62.46390         2.46184
C         70.38652        63.20207         2.18325
C         71.17722        65.30221         3.42913
C         70.16932        64.63660         2.60024
C         71.22167        66.65431         3.50390
C         70.27551        67.48699         2.80682
C         71.14572        69.56133         4.05391
C         70.42133        68.95839         2.92543
C         71.02018        70.88208         4.34881
C         70.02575        71.70251         3.71090
O         69.93199        40.36136        -1.59006
O         64.54954        65.42123        -2.18160
O         51.73654        54.72853        -2.20499
O         57.92386        42.06285         1.76362
O         60.65988        54.68813        -2.32686
O         63.14921        37.68842         1.73713
O         70.67584        69.61320         1.63510
O         47.71052        54.73655        -1.74292
O         58.06860        63.46663        -2.40008
O         57.23175        44.54628        -1.61976
O         61.91341        63.28786        -2.34957
O         67.48567        34.69458        -0.87359
O         54.78978        57.98516        -2.40075
O         69.51812        63.48311         3.30254
O         69.41388        60.56928         2.22179
O         65.34434        43.80535        -2.45795
O         70.01785        44.83940        -2.32155
O         47.70149        46.14617         2.12934
O         47.44643        48.80224         1.87263
O         60.30319        58.96961         0.81537
O         67.26983        37.07472        -1.54353
H         68.02642        36.53672        -1.86710
O         70.00280        57.84444        -1.69818
H         70.07965        57.14807        -2.38463
O         52.57530        57.12503         1.11066
H         51.86908        57.68464         1.50190
O         67.55028        41.12927        -2.49741
H         68.43396        40.70010        -2.61332
O         70.92418        48.08860         0.92463
H         70.95542        49.05242         1.10577
O         65.93302        48.10003         0.64924
H         66.57621        47.52824         1.11748
O         66.01563        37.90385         1.75631
H         65.10597        38.08908         2.07879
O         54.25459        40.83310         1.54955
H         55.02200        40.33202         1.89976
O         46.96108        49.71767        -1.63771
H         46.88555        50.55341        -2.14487
O         64.96779        48.31796        -2.86115
H         64.34486        48.91564        -3.32433
O         51.04055        50.69063         1.26804
H         51.82774        51.11703         1.66697
O         54.65752        52.97759         1.08713
H         55.48443        53.35580         1.47156
O         64.94400        52.62281         1.07439
H         65.74444        53.10429         1.37601
O         65.88325        59.09781        -2.22094
H         66.53905        59.65393        -2.69116
O         65.22360        67.90290        -2.07288
H         64.79302        67.27306        -2.69716
O         69.32052        37.84599         2.51441
H         69.97734        37.44632         3.12408
O         60.61757        41.65656         2.30508
H         59.83899        41.46258         2.87117
O         50.99774        43.72892        -2.51906
H         51.79369        43.29137        -2.88946
O         65.10379        58.71459         1.32777
H         64.38193        58.22074         1.77555
O         70.52648        63.06515        -0.18663
H         70.16406        62.60593        -0.98129
O         58.43827        60.77133         0.93090
H         59.15490        60.19527         1.29995
O         57.48252        53.35583         1.02844
H         57.75105        52.57192         1.55416
O         62.22190        57.04627         1.36802
H         61.44559        57.61100         1.60669
O         68.11882        42.12428         0.99695
H         68.82266        42.60900         1.47634
O         69.14704        57.74849         1.85576
H         68.97271        58.50883         2.45636
O         58.96985        59.50793        -2.51543
H         58.21532        59.95983        -2.94954
O         50.02626        50.15745        -2.21029
H         49.93799        51.09865        -2.47318
O         53.87827        52.23636        -2.39411
H         53.10722        51.82467        -2.83674
O         58.62024        46.52156        -2.48958
H         58.31994        45.64277        -2.81933
O         64.59978        39.56892        -2.14314
H         65.36731        39.96410        -2.61395
O         68.85917        34.89398        -1.31011
H         69.31660        34.08128        -0.98157
O         66.56339        63.53943        -2.11547
H         65.89111        64.10237        -2.57260
O         67.22331        49.94363        -3.08160
H         68.00205        49.44325        -3.40612
O         63.75659        46.51450         0.94400
H         63.10245        47.17176         1.26496
O         57.33154        53.82183        -2.59247
H         57.32970        54.61993        -3.16129
O         47.88655        46.41410        -1.51194
H         48.44293        46.83012        -2.20480
O         64.62422        36.94688        -1.53630
H         65.53892        36.87353        -1.90749
O         69.35278        60.80244        -1.41741
H         69.67070        59.91057        -1.69992
O         57.44261        48.53443         1.36329
H         56.60656        48.94311         1.67624
O         69.93288        53.14321        -2.86633
H         70.82022        53.52400        -3.04018
H         37.82227        49.02616         2.54306
H         35.73725        50.25454         2.97970
H         37.77192        54.00680         2.42877
H         35.71235        52.75810         2.92359
H         39.43486        48.10060         2.23450
H         39.36512        54.94922         2.07725
H         41.50927        46.90320         1.87289
H         41.39319        56.16678         1.54920
H         45.29062        44.82112         1.94494
H         43.18609        46.01234         1.97696
H         45.00461        58.31201         0.51809
H         42.98345        57.11743         1.10625
H         46.79042        43.71814         0.88553
H         46.63872        59.23304         0.33656
H         48.60231        42.58365        -0.28784
H         48.72173        60.44019         0.14816
H         52.24145        40.43705        -0.20040
H         50.19133        41.58257        -0.89722
H         52.37700        62.61991        -0.59063
H         50.30380        61.40744        -0.34116
H         54.27014        39.76928        -1.24216
H         53.98917        63.53654        -0.76069
H         56.52260        38.79689        -1.16784
H         56.05955        64.78362        -1.00902
H         59.67697        36.28916         0.48062
H         57.62905        37.63123         0.30529
H         59.95425        66.84322        -0.28230
H         57.84164        65.71736        -0.57113
H         61.29924        35.19018         0.53561
H         61.60312        67.71602        -0.10511
H         63.37077        33.93943         0.59856
H         63.65008        68.93008         0.04314
H         66.96074        32.11223         2.26215
H         64.93383        33.20959         1.55072
H         67.26435        71.01317         1.00557
H         65.45495        69.93056        -0.26394
H         68.48524        31.29940         2.97811
H         68.31728        71.79051         2.44954
H         72.69630        31.45628         3.85024
H         70.50679        30.24172         3.88546
H         72.84072        33.72684         2.91730
H         72.93289        35.44631         2.14516
H         73.09433        37.64864         1.15431
H         73.15526        39.52352         0.58329
H         73.18169        41.88668         0.08102
H         73.14424        43.82041        -0.01584
H         73.10496        46.24052        -0.13853
H         73.23084        48.04336        -1.03046
H         73.25022        50.45406        -1.38322
H         73.25534        52.34075        -0.80518
H         73.21074        54.73948        -0.43245
H         73.08696        56.50649         0.50511
H         72.99725        58.89996         1.07316
H         72.75433        60.66125         2.25340
H         72.47506        62.98036         2.97466
H         71.88627        64.68824         4.00042
H         72.00339        67.12692         4.11263
H         71.79164        68.93331         4.68296
H         71.60367        71.31554         5.17337
H         69.88633        72.73089         4.07320
