         430
 CSIRO Nanostructure Databank - Neutral Graphene Oxide Data Set
C         27.91042        27.38397        -0.77909
C         27.87964        28.81893        -0.63034
C         26.65606        29.51094        -0.55426
C         27.82260        31.62794        -0.15431
C         26.62464        30.88074        -0.35734
C         27.79038        33.02971         0.07948
C         26.60086        33.81864        -0.01031
C         27.84960        35.98907         0.28159
C         26.59328        35.18376         0.06956
C         27.93017        37.29599        -0.48966
C         26.85587        37.85629        -1.16527
C         28.14959        39.85777        -1.56522
C         26.99964        39.11160        -1.78430
C         28.19675        42.21358        -1.52478
C         27.11726        43.05691        -1.80754
C         28.04733        44.71412        -0.31512
C         27.01389        44.28493        -1.15436
C         27.99497        46.05135         0.25735
C         30.36408        27.45014        -1.21236
C         29.07095        26.71512        -0.96861
C         30.35205        28.84938        -0.63706
C         29.11248        29.54001        -0.50145
C         30.32534        31.64435        -0.01006
C         29.08137        30.93398        -0.21109
C         30.31593        32.99919         0.31013
C         29.03228        33.74453         0.53861
C         30.36828        35.90297         0.19064
C         29.08685        35.14696        -0.09100
C         30.36801        37.32244         0.01671
C         29.16792        38.00218        -0.40138
C         30.39427        40.16332        -0.41897
C         29.24615        39.36929        -0.79953
C         30.27796        41.62692        -0.14049
C         29.20285        42.54707        -0.59316
C         30.36403        44.48007         0.48610
C         29.17353        43.87446        -0.06328
C         30.37092        45.90121         1.02341
C         29.05415        46.61487         0.86192
C         32.82067        24.55242        -0.74720
C         31.63431        25.27382        -0.93063
C         32.83181        27.36559        -0.62988
C         31.61377        26.66492        -0.86620
C         32.82302        28.79532        -0.46699
C         31.57577        29.52649        -0.41759
C         32.81624        31.62205         0.04282
C         31.57521        30.91949        -0.10941
C         32.83017        33.03493         0.28752
C         31.56781        33.72770         0.72189
C         32.79100        35.92757         0.43125
C         31.55839        35.21209         0.38970
C         32.79731        37.34795         0.33361
C         31.57703        38.05642         0.10988
C         32.80616        40.21484         0.25599
C         31.56429        39.49696         0.00703
C         32.83405        41.61824         0.32145
C         31.56018        42.34577         0.35916
C         32.84276        44.52232         0.52838
C         31.57372        43.81367         0.42489
C         32.85411        45.91434         0.59297
C         31.54650        46.66841         0.39502
C         32.81051        48.73129         0.98422
C         31.62402        48.10120         0.84117
C         35.35899        23.08734        -0.24529
C         35.29219        24.45253        -0.44526
C         34.04655        25.20568        -0.57422
C         35.29433        27.36537        -0.40002
C         34.06030        26.63766        -0.54370
C         35.26643        28.75639        -0.24497
C         34.04174        29.48273        -0.25106
C         35.27938        31.63082         0.02921
C         34.03996        30.91270        -0.06025
C         35.26479        33.05399         0.13965
C         34.02390        33.75500         0.30125
C         35.23962        35.90983         0.56135
C         34.03427        35.20540         0.47624
C         35.25541        37.35378         0.59450
C         34.03335        38.06664         0.42547
C         35.27669        40.19708         0.46420
C         34.04060        39.49090         0.38676
C         35.29748        41.62477         0.43395
C         34.06266        42.34517         0.40745
C         35.31505        44.47265         0.48436
C         34.07686        43.77422         0.49041
C         35.34167        45.90924         0.57995
C         34.09129        46.64006         0.69865
C         35.32287        48.79201         1.03537
C         34.07045        48.03276         0.88014
C         35.36336        50.24083         0.82303
C         37.80072        23.03864         0.08939
C         36.58148        22.39655         0.02658
C         37.85072        24.45712        -0.30867
C         36.55502        25.19846        -0.54850
C         37.78446        27.34597        -0.36678
C         36.56729        26.66719        -0.39573
C         37.75561        28.83939        -0.59467
C         36.55615        29.44415         0.12742
C         37.73223        31.63048         0.07775
C         36.51547        30.93820        -0.00980
C         37.69533        33.02928         0.25914
C         36.49388        33.75224         0.24538
C         37.68888        35.89460         0.48991
C         36.50487        35.20232         0.45742
C         37.72897        37.30593         1.03594
C         36.47400        38.06894         0.70902
C         37.76242        40.19540         0.56644
C         36.50997        39.47559         0.59165
C         37.78072        41.60116         0.46771
C         36.54122        42.32699         0.44822
C         37.79010        44.45677         0.31872
C         36.54854        43.75135         0.42203
C         37.79174        45.88347         0.24086
C         36.56425        46.58938         0.47401
C         37.80452        48.80390         0.29799
C         36.64636        48.03090         0.76233
C         37.77006        50.18171         0.31872
C         36.53817        50.88471         0.60021
C         40.25727        20.48309         1.39757
C         39.07358        21.09311         1.04069
C         40.28078        23.10813         0.38979
C         39.05880        22.41480         0.51395
C         40.30659        24.48720        -0.23299
C         39.05122        25.24262         0.18186
C         40.26338        27.38458        -0.24920
C         39.04753        26.68776        -0.24459
C         40.27658        28.83295        -0.25162
C         39.04762        29.53489        -0.23391
C         40.23590        31.62832         0.13750
C         39.01877        30.92366         0.00341
C         40.21530        33.00743         0.49484
C         38.91981        33.74599         0.72830
C         40.14821        35.84355         0.77287
C         38.97172        35.16038         0.14901
C         40.21512        37.30429         0.54240
C         38.98442        38.07699         0.69781
C         40.27909        40.18021         0.45389
C         39.00945        39.45515         0.55507
C         40.26562        41.63075         0.38895
C         39.03640        42.31983         0.38200
C         40.24808        44.47484         0.13030
C         39.02699        43.75255         0.27026
C         40.23342        45.90344        -0.02199
C         38.99661        46.58909         0.00449
C         40.25099        48.75295        -0.29622
C         38.92617        48.04229        -0.39503
C         40.23699        50.20795        -0.44668
C         38.94328        50.97297        -0.15391
C         40.26236        53.04770         0.01841
C         39.08716        52.39529         0.19626
C         42.72810        20.53197         1.59067
C         41.49554        21.16116         1.25306
C         42.76277        23.19221         0.61212
C         41.50774        22.49635         0.75280
C         42.78920        24.58850         0.23218
C         41.56328        25.28256         0.02528
C         42.75847        27.41762        -0.18297
C         41.53210        26.68311        -0.11389
C         42.75289        28.83300        -0.28292
C         41.51653        29.53485        -0.19300
C         42.71135        31.70708        -0.02364
C         41.51934        30.97735        -0.03881
C         42.70594        33.22000         0.16939
C         41.37726        33.69065         0.76966
C         43.06364        36.13954         1.01187
C         41.17502        35.06097         1.20536
C         42.84151        37.37742         0.48336
C         41.52298        38.05114         0.40008
C         42.81419        40.22268         0.63536
C         41.49169        39.50990         0.46807
C         42.75272        41.67044         0.23342
C         41.50774        42.34901         0.25163
C         42.71660        44.48553        -0.04818
C         41.49161        43.77333         0.09887
C         42.70565        45.91908        -0.15430
C         41.47257        46.61852        -0.16032
C         42.71567        48.77704        -0.35575
C         41.46902        48.06394        -0.26332
C         42.72798        50.22200        -0.40456
C         41.50474        50.94076        -0.37419
C         42.71558        53.05006        -0.37852
C         41.49388        52.35156        -0.29476
C         43.92142        21.18724         1.41171
C         45.23362        23.19932         0.68621
C         43.96951        22.52608         0.91384
C         45.25147        24.55924         0.25405
C         44.01639        25.27919         0.10786
C         45.21025        27.35382        -0.47964
C         44.02008        26.70030        -0.18972
C         45.31492        28.83010        -0.84088
C         43.92839        29.56275        -0.87661
C         45.26415        31.67448         0.04531
C         43.99448        31.11476        -0.59239
C         45.28175        33.05538         0.33354
C         44.02767        33.75562         0.86055
C         45.30835        35.88824         0.25384
C         44.16492        35.27001         0.69500
C         45.29822        37.29975        -0.17821
C         43.95452        38.08035        -0.16764
C         45.20491        40.19339        -0.15247
C         44.00023        39.52052         0.00695
C         45.22082        41.64263        -0.11564
C         43.96407        42.35353        -0.00163
C         45.18703        44.48459        -0.21501
C         43.95411        43.77983        -0.10466
C         45.18173        45.91451        -0.23222
C         43.94378        46.62855        -0.23455
C         45.19041        48.75251        -0.36534
C         43.95359        48.06114        -0.33703
C         45.25574        50.22745        -0.67533
C         43.94377        50.95010        -0.48841
C         43.91172        52.35117        -0.51789
C         47.66083        23.14260         0.49987
C         46.46548        22.52436         0.82731
C         47.68704        24.46787         0.02204
C         46.48622        25.18395        -0.06920
C         47.71688        27.36980        -0.24262
C         46.48742        26.57542        -0.66391
C         47.72419        28.73046        -0.09667
C         46.39049        29.44946         0.08118
C         47.72686        31.61578         0.09940
C         46.47992        30.95371         0.00102
C         47.74970        33.04089         0.13318
C         46.52236        33.74471         0.27480
C         47.75276        35.89307         0.18074
C         46.56199        35.18102         0.24011
C         47.74386        37.38283         0.42717
C         46.50668        38.08367        -0.06850
C         47.70883        40.20939        -0.19898
C         46.46433        39.46718        -0.19464
C         47.68819        41.61137        -0.32556
C         46.42719        42.33202        -0.28489
C         47.63666        44.48766        -0.44316
C         46.42702        43.77709        -0.32471
C         47.65582        45.89696        -0.25613
C         46.41444        46.61387        -0.19422
C         47.61767        48.76067         0.07544
C         46.41717        48.05268        -0.18564
C         47.55040        50.16993         0.29265
C         46.41822        50.88255         0.02271
C         50.25556        24.46829        -0.02230
C         48.96330        25.12888        -0.47124
C         50.21958        27.34157        -0.36805
C         48.97271        26.58668         0.04557
C         50.22504        28.80214        -0.15578
C         48.98480        29.47644        -0.01634
C         50.21349        31.61938        -0.02805
C         48.98417        30.89790         0.04474
C         50.21864        33.05635        -0.02158
C         48.98378        33.76617         0.06283
C         50.21074        35.92318        -0.01360
C         48.98977        35.19358         0.09068
C         50.19983        37.36908        -0.09142
C         48.99384        38.08501        -0.01563
C         50.17617        40.20882        -0.37724
C         48.95618        39.49496        -0.18906
C         50.13254        41.62696        -0.54332
C         48.92192        42.31196        -0.50411
C         50.16749        44.49725        -0.49426
C         48.89430        43.77745        -0.87607
C         50.13488        45.91082        -0.24877
C         48.88994        46.59355        -0.12647
C         50.13879        48.74531         0.01939
C         48.88324        48.00798         0.40161
C         51.41982        25.13628         0.01245
C         52.76160        27.34903        -0.14399
C         51.51369        26.57775        -0.33381
C         52.71635        28.76493        -0.16464
C         51.45927        29.49018        -0.16616
C         52.68942        31.64137        -0.20045
C         51.46293        30.92146        -0.12138
C         52.68879        33.07768        -0.20168
C         51.44050        33.78299        -0.09827
C         52.66753        35.94353        -0.19081
C         51.43488        35.21417        -0.11076
C         52.66976        37.36470        -0.24526
C         51.42868        38.08673        -0.25846
C         52.66239        40.22912        -0.45368
C         51.41642        39.49714        -0.38760
C         52.66101        41.63124        -0.56893
C         51.39123        42.35956        -0.95112
C         52.61232        44.51442        -0.38679
C         51.37536        43.81825        -0.55370
C         52.60591        45.93466        -0.23475
C         51.36321        46.63327        -0.18299
C         51.30016        48.08157        -0.17694
C         55.18834        27.38111         0.01104
C         54.00075        26.67870        -0.02392
C         55.18468        28.79834        -0.08076
C         53.94229        29.49861        -0.13819
C         55.17289        31.61747        -0.32541
C         53.94261        30.92798        -0.22293
C         55.19201        33.09975        -0.61328
C         53.89747        33.80153        -0.28145
C         55.13656        35.94460        -0.14925
C         53.90376        35.22516        -0.22116
C         55.13863        37.36608        -0.19447
C         53.90311        38.08261        -0.27523
C         55.13099        40.23051        -0.32826
C         53.90284        39.51376        -0.34357
C         55.11917        41.66654        -0.35024
C         53.87566        42.35948        -0.45973
C         55.07084        44.51303        -0.27861
C         53.85327        43.79946        -0.40221
C         55.04698        45.93559        -0.16212
C         53.85935        46.61980        -0.13227
C         56.40056        29.52367        -0.15119
C         56.38439        30.89925        -0.30545
C         56.37318        33.83717        -0.03421
C         56.34841        35.18312         0.08403
C         56.35573        38.11785        -0.19673
C         56.35064        39.48701        -0.26181
C         56.32474        42.42695        -0.26536
C         56.30377        43.80048        -0.24081
O         28.26562        41.04771        -2.29154
O         42.17409        35.65275         1.97147
O         30.56870        41.80162         1.29094
O         36.19565        48.34221         2.12102
O         39.32575        50.67560        -1.54401
O         50.84609        26.91992        -1.62146
O         37.42662        24.74621        -1.66205
O         44.50444        37.53365        -1.39144
O         40.80395        37.54666        -0.81951
O         43.42235        29.38699        -2.20143
O         29.05515        34.91072        -1.52141
H         29.04264        35.78191        -1.97197
O         48.91421        47.88554         1.88366
H         49.75766        47.44114         2.11561
O         30.65384        45.81916         2.44601
H         30.01623        45.19211         2.84625
O         38.75475        33.93806         2.17300
H         38.65302        33.05337         2.58331
O         37.74783        37.11454         2.50539
H         38.16533        36.24184         2.68493
O         46.60590        26.40085        -2.10925
H         46.47713        27.30667        -2.50004
O         43.91685        33.40806         2.25975
H         44.65175        33.83648         2.74536
O         48.92474        25.08000        -1.90551
H         49.65659        25.65327        -2.23938
O         39.11959        35.11662        -1.28510
H         39.67700        35.87952        -1.55855
O         43.09206        40.21258         2.09127
H         42.40231        40.76039         2.52363
O         45.54490        50.32154        -2.12784
H         46.38263        49.83524        -2.28457
O         31.30002        46.69072        -1.04553
H         32.02851        47.19322        -1.46643
O         30.43913        27.63535        -2.67847
H         29.66936        28.18425        -2.94043
O         47.71115        37.50731         1.90422
H         47.77467        38.46358         2.11562
O         42.68325        33.82086        -1.15270
H         43.21135        33.22196        -1.74967
O         36.76331        29.17268         1.55473
H         36.00934        29.56567         2.04323
O         49.03013        26.46492         1.50327
H         48.86230        27.35027         1.88947
O         27.90396        36.37463         1.67780
H         28.05671        35.55301         2.20098
O         28.89773        33.91260         2.01016
H         28.65752        33.03452         2.37725
O         45.83741        28.92964        -2.18522
H         45.00023        29.04497        -2.73186
O         45.94328        29.15347         1.44250
H         46.51857        29.64279         2.06731
O         39.02030        25.24147         1.63688
H         38.38486        25.92599         1.93428
O         40.25150        24.32359        -1.67626
H         41.04782        23.82888        -1.96094
O         44.07491        31.72105        -1.92678
H         43.69679        30.99474        -2.51974
O         38.55836        48.04309        -1.82317
H         38.69196        48.97423        -2.13363
O         31.60247        33.67319         2.19936
H         30.73134        34.02453         2.50641
O         37.55258        29.05539        -2.01708
H         38.26897        28.59532        -2.50289
O         55.33865        33.19890        -2.08285
H         55.31466        34.15333        -2.30901
O         48.86837        43.80138        -2.34772
H         49.71115        43.37649        -2.64848
O         51.36201        42.37564        -2.43439
H         51.40216        41.44281        -2.73708
H         26.95753        26.83682        -0.71372
H         25.71584        28.95063        -0.66064
H         25.65151        31.38704        -0.31498
H         25.64034        33.30944        -0.18158
H         25.62792        35.71075         0.04932
H         25.90601        37.31326        -1.25950
H         26.19666        39.52253        -2.40918
H         26.35715        42.73386        -2.52988
H         26.15704        44.94577        -1.34645
H         27.05012        46.60784         0.15828
H         29.04218        25.62426        -1.09569
H         28.96177        47.61947         1.29998
H         32.78204        23.45570        -0.79276
H         30.71534        24.70921        -1.13586
H         32.82047        49.79644         1.25579
H         30.69079        48.67005         0.95603
H         34.43347        22.49534        -0.20522
H         34.42926        50.81917         0.82952
H         36.50927        21.32368         0.25590
H         36.52269        51.97603         0.47455
H         40.25314        19.45733         1.79384
H         38.12869        20.54578         1.16223
H         40.32691        54.12477         0.23339
H         38.22140        52.94052         0.59753
H         42.71336        19.50563         1.98503
H         42.71664        54.14877        -0.34627
H         44.85275        20.66834         1.67351
H         44.84593        52.91675        -0.63586
H         48.58946        22.56385         0.58980
H         46.49164        21.47957         1.16307
H         48.41722        50.68439         0.73222
H         46.39701        51.96341         0.21927
H         50.26507        23.39323         0.20894
H         50.13123        49.84436        -0.00684
H         52.33749        24.60912         0.31262
H         52.21490        48.65481        -0.38405
H         56.14773        26.84789         0.07026
H         54.02619        25.58104         0.00232
H         56.00023        46.47655        -0.07324
H         53.87576        47.71155        -0.01547
H         57.35483        28.97851        -0.12554
H         57.33845        31.43028        -0.42375
H         57.30392        33.29473         0.18323
H         57.25134        35.71054         0.42353
H         57.31938        37.59250        -0.15858
H         57.31338        40.01472        -0.26692
H         57.29311        41.91309        -0.20633
H         57.24352        44.36618        -0.16375
