         349
 CSIRO Nanostructure Databank - Neutral Graphene Oxide Data Set
C          1.51237         1.85323         1.30478
C          1.41912         3.25781         1.05700
C          2.72429         1.25560         1.49627
C          2.54264         4.05393         0.99532
C          1.21447         6.29860         0.96067
C          1.19517         7.69412         0.84640
C          2.42234         5.50946         0.68142
C          2.34194         8.47909         0.70233
C          1.08818        10.77564         0.63951
C          1.06641        12.09943         0.40294
C          2.37164        10.00197         0.84853
C          2.26004        12.85969        -0.07219
C          1.12684        15.21987         0.26951
C          1.22217        16.48725         0.70305
C          2.32541        14.38666        -0.03231
C          2.51672        17.14750         1.12395
C          2.56824        18.63939         0.91552
C          3.94512         2.03096         1.48286
C          3.85236         3.46452         1.20778
C          5.15486         1.41856         1.72256
C          5.03320         4.21235         1.11464
C          3.69104         6.29244         0.51753
C          3.67411         7.77756         0.87160
C          5.00119         5.61201         0.74908
C          4.80314         8.47347         0.13721
C          3.57533        10.65046         0.15969
C          3.54913        12.10245        -0.22515
C          4.73769         9.95555         0.05461
C          4.87638        12.89361        -0.43014
C          3.65786        15.05138         0.14903
C          3.74451        16.47459         0.56695
C          4.88373        14.20627         0.42614
C          4.94724        17.13125         0.46848
C          3.74206        19.28819         0.75379
C          5.01071        18.58359         0.59696
C          6.42779         2.19343         1.87722
C          6.33756         3.58905         1.29714
C          7.67421         1.46342         1.45465
C          7.49823         4.28861         1.12820
C          6.15691         6.33399         0.60531
C          6.10904         7.71481         0.08763
C          7.48714         5.79130         1.05683
C          7.39248         8.43047        -0.04579
C          6.02938        10.66037         0.15152
C          6.08790        12.10867        -0.00825
C          7.33327         9.88873         0.07456
C          7.27409        12.73730         0.26576
C          6.17293        14.99805         0.25761
C          6.19206        16.39379         0.21561
C          7.40901        14.20925         0.02224
C          7.40673        17.14056         0.05975
C          6.20075        19.25507         0.43712
C          7.43872        18.56338         0.12930
C          8.85828         2.14419         1.27449
C          8.84867         3.65563         1.39436
C         10.11371         1.48566         1.13279
C          9.93080         4.29830         0.53817
C          8.69751         6.41479         0.38561
C          8.61328         7.80399         0.03178
C          9.92379         5.77673         0.38565
C          9.85156         8.46819        -0.54689
C          8.57675        10.64158         0.04131
C          8.43943        11.92837         0.51102
C          9.82759        10.00437        -0.44993
C         10.32109        13.02566         0.10901
C          8.69801        14.96149        -0.17375
C          8.74059        16.45247         0.08734
C         10.06351        14.35374        -0.28585
C          9.78542        17.13845        -0.80955
C          8.63861        19.27636        -0.09949
C          9.77449        18.66833        -0.79148
C         11.31242         2.14937         0.74778
C         11.19756         3.55678         0.26355
C         12.53180         1.50363         0.67542
C         12.44113         4.35632         0.10206
C         11.17236         6.48499         0.15772
C         11.17337         7.86019        -0.10411
C         12.42087         5.73023         0.19615
C         12.38957         8.62227        -0.29895
C         11.13025        10.73655        -0.57671
C         11.28611        12.20120        -0.41547
C         12.39959         9.97603        -0.60252
C         12.33081        12.80284        -1.25483
C         11.11447        15.06063        -0.89360
C         11.06808        16.45453        -1.00030
C         12.27765        14.30511        -1.42696
C         12.34907        17.21218        -0.82524
C         11.06596        19.35130        -1.05432
C         12.26645        18.67484        -1.19553
C         13.67110         2.08567        -0.12063
C         13.71281         3.61217        -0.08129
C         15.01488         1.45544         0.15513
C         15.00748         4.33136         0.12623
C         13.67532         6.51268         0.35243
C         13.68856         7.98585         0.02804
C         14.99053         5.79863         0.41181
C         14.95187         8.63867        -0.40984
C         13.62578        10.70435        -0.91343
C         13.59602        12.04397        -1.29614
C         14.88872         9.97438        -0.89653
C         14.78324        12.70237        -1.97553
C         13.53429        15.06957        -1.70698
C         13.58661        16.49987        -1.31996
C         14.79595        14.25529        -1.93623
C         14.79088        17.17334        -1.28774
C         13.52004        19.31465        -1.44098
C         14.77025        18.66103        -1.36184
C         16.21361         2.12989         0.23656
C         16.26645         3.60768         0.57194
C         17.44606         1.43160         0.10673
C         17.51337         4.32493         0.06381
C         16.26964         6.53989         0.09154
C         16.18313         7.94057        -0.39026
C         17.49689         5.74512        -0.16947
C         17.36078         8.54588        -0.93275
C         16.08871        10.66209        -1.24246
C         16.07739        12.05787        -1.53740
C         17.33552         9.95533        -1.26653
C         17.27221        12.78564        -1.52238
C         16.05430        14.96009        -1.61813
C         16.01522        16.36326        -1.31499
C         17.23746        14.22555        -1.45816
C         17.20035        16.93286        -0.83502
C         15.93974        19.46065        -1.58853
C         17.21400        19.07291        -1.11239
C         18.66674         2.11085        -0.08910
C         18.66457         3.56561        -0.13999
C         19.86428         1.38587        -0.29774
C         19.94074         4.23812        -0.40076
C         18.62845         6.43866        -0.64630
C         18.55800         7.79473        -1.07160
C         19.93383         5.75258        -0.64688
C         19.71029         8.40679        -1.79394
C         18.50679        10.65007        -1.63390
C         18.53943        12.08289        -1.60659
C         19.71504         9.89506        -1.99148
C         19.75310        12.79341        -1.73153
C         18.47437        14.90421        -1.06626
C         18.48640        16.36718        -1.00152
C         19.81045        14.18060        -1.25091
C         19.67354        17.12113        -0.97527
C         18.53156        19.39670        -1.42604
C         19.67523        18.58436        -1.03083
C         21.08090         2.01592        -0.68627
C         21.08483         3.43504        -0.85946
C         22.28101         1.32460        -0.96188
C         22.18482         4.07358        -1.43600
C         21.03597         6.28703        -1.47157
C         21.00300         7.67758        -2.01430
C         21.97141         5.40856        -1.93001
C         22.35916         8.49205        -2.33223
C         21.04671        10.63072        -2.09816
C         21.02036        12.12036        -2.03285
C         22.31101         9.93676        -1.83729
C         22.33035        12.84175        -1.79256
C         21.00274        15.01864        -1.37061
C         20.94141        16.41187        -1.09681
C         22.27925        14.33570        -1.63447
C         22.14902        17.14423        -0.89713
C         20.88963        19.23505        -0.79699
C         22.09393        18.51805        -0.54336
C         23.47715         2.01605        -1.27936
C         23.46524         3.42765        -1.53282
C         24.72713         1.32426        -1.28182
C         24.70737         4.15780        -1.58405
C         23.79637         6.46235        -2.13190
C         23.61250         7.80394        -1.82922
C         24.78856         5.62128        -1.56970
C         24.64840         8.47484        -1.11095
C         23.44786        10.63712        -1.36913
C         23.49273        12.07244        -1.30016
C         24.62720         9.89381        -0.91909
C         24.64873        12.77456        -0.79491
C         23.56517        15.01329        -1.23176
C         23.45432        16.46659        -0.87215
C         24.68425        14.17944        -0.75466
C         24.54852        17.09605        -0.06912
C         23.17827        19.13707         0.15468
C         24.30447        18.41818         0.54712
C         25.92126         2.01510        -1.32322
C         25.91524         3.44687        -1.38448
C         27.21778         1.25800        -1.11979
C         27.12781         4.16522        -1.04359
C         25.85499         6.28851        -0.93489
C         25.77862         7.70612        -0.69216
C         27.04845         5.53658        -0.65090
C         26.84085         8.36936        -0.01377
C         25.74264        10.55093        -0.33753
C         25.80430        12.01334        -0.28951
C         26.82405         9.75838         0.17621
C         26.92975        12.67336         0.22463
C         25.91540        14.94980        -0.31097
C         25.51348        16.13526         0.60450
C         26.97677        14.10613         0.36427
C         26.71177        16.88484         1.12950
C         25.32103        18.93660         1.38674
C         26.52191        18.24310         1.60522
C         28.44476         2.10012        -1.52569
C         28.35436         3.48707        -0.93159
C         29.73720         1.39982        -1.20508
C         29.46539         4.11545        -0.31617
C         28.14546         6.16224        -0.03555
C         27.94220         7.51817         0.52111
C         29.35173         5.45664         0.17953
C         29.09660         8.15092         1.22515
C         28.14767        10.43048         0.52947
C         28.02333        11.89929         0.96082
C         29.06328         9.61184         1.45699
C         29.35983        12.68365         1.00096
C         28.00492        14.79567         1.00163
C         27.91313        16.22073         1.26254
C         29.18727        14.06722         1.61543
C         29.13105        17.05261         1.59728
C         27.57851        18.86926         2.33111
C         28.83187        18.28377         2.42358
C         30.76816         2.01524        -0.58472
C         30.68213         3.38559        -0.12460
C         31.75353         4.00027         0.54223
C         30.46149         6.05783         0.88062
C         30.34784         7.38640         1.40065
C         31.64557         5.29699         1.03728
C         31.33525         7.99086         2.20911
C         29.95488        10.02224         2.46089
C         30.66220        12.25533         0.74226
C         31.08383         9.20874         2.81246
C         31.81639        13.03874         1.11295
C         30.43687        14.92239         1.71029
C         30.32374        16.27430         2.08773
C         31.70928        14.30900         1.60876
C         31.34268        16.97707         2.75326
C         29.89804        18.90515         3.11947
C         31.13577        18.27976         3.23621
O          9.28108        17.84406        -1.95383
O          7.92508        14.55158        -1.34367
O          6.65549        10.17940         1.40461
O         22.84180         5.83839        -2.94234
O         17.10804        18.09627        -0.08890
O         19.15960        14.28866         0.08217
O         20.01606         7.74454        -3.09082
O         14.06775        14.84018        -3.05970
O         11.89283        13.41514        -2.52902
O          5.22039         7.84903        -1.10436
O         20.31934         5.21491         0.65353
O         21.84567        12.58026        -3.16161
O         13.61842         7.51099         1.42326
O         27.95157         7.48299         2.00024
O          2.66428        12.31967        -1.38182
O         15.81766         6.27276         1.50292
O         14.53350         4.09289        -1.23449
O         23.17757        14.90274        -2.65015
O         10.15460         3.67939        -0.77234
O          3.06701        14.91365        -1.19215
O          2.98480         5.88072        -0.66811
O          9.51278        12.54615         1.13566
O         24.56731        17.20700        -1.52765
O         10.24003        10.54456        -1.77205
O         20.29237        10.22040        -3.29643
O         24.79107        15.56265         1.73248
H         24.76154        16.23205         2.44811
O         12.52501        17.22680         0.65269
H         13.24863        17.86066         0.85064
O         16.29477         3.66601         2.02228
H         16.34310         4.62186         2.27165
O         14.64430        12.33821        -3.37956
H         13.95787        12.94175        -3.75229
O         29.87664        11.17275         3.16588
H         28.96389        11.55531         3.05281
O          5.03136        13.20460        -1.80970
H          4.15061        13.49992        -2.14527
O          4.01085         7.86542         2.30307
H          4.96758         7.66712         2.41417
O         31.06032        11.09912         0.16114
H         30.31538        10.65920        -0.31799
O         28.35634         2.22457        -2.97542
H         29.10862         2.77472        -3.27772
O          9.28566        16.63746         1.43288
H          8.62295        16.32352         2.08289
O         22.45031         8.56184        -3.76327
H         21.57592         8.88790        -4.08783
O         13.38955         1.72032        -1.51041
H         13.84956         2.38309        -2.07456
O          9.75886         8.10498        -1.95617
H         10.06184         8.89363        -2.47172
O          4.79789        13.75771         1.80766
H          4.70700        14.54450         2.38534
O         29.58782        17.57406         0.29324
H         28.83921        18.07070        -0.10163
O         28.81692        13.91527         3.05627
H         29.61442        13.58301         3.52419
O          2.57756        16.94265         2.58947
H          3.22613        17.58535         2.94806
O          7.60884         6.23257         2.46743
H          8.32905         5.67857         2.86459
O          2.64677        10.22864         2.27618
H          3.28018         9.52817         2.57582
O          9.16536         3.96657         2.79253
H          8.52082         3.45073         3.33508
O         27.47796        11.81836         2.32114
H         27.37260        12.74218         2.65636
O         26.54921        15.45772        -1.50796
H         25.89893        16.04825        -1.96620
O         27.31828         0.85999         0.25356
H         27.23774         1.65879         0.81442
O          6.60873         2.42667         3.34306
H          5.76741         2.80568         3.67853
O         28.76350        10.45236        -0.81884
H         28.57502         9.59888        -1.26366
H          0.58953         1.25721         1.32707
H          0.42550         3.69479         0.88509
H          2.79368         0.17413         1.68199
H          0.27701         5.77763         1.20330
H          0.21605         8.19282         0.91909
H          0.14565        10.27383         0.90770
H          0.10069        12.62986         0.40437
H          0.13539        14.79476         0.04781
H          0.30087        17.06656         0.87283
H          1.63059        19.20857         1.00810
H          5.17896         0.33668         1.92521
H          3.75800        20.38692         0.68375
H          7.65536         0.36378         1.40953
H          6.21272        20.35490         0.48328
H         10.15018         0.39611         1.28673
H          8.68500        20.34483         0.16273
H         12.61438         0.45892         1.01116
H         11.05821        20.45006        -1.14063
H         15.05298         0.36460        -0.00168
H         13.51803        20.39874        -1.63426
H         17.42835         0.33349         0.03085
H         15.81079        20.43205        -2.09003
H         19.83639         0.28932        -0.21408
H         18.74664        20.31072        -2.00002
H         22.31791         0.23268        -0.83232
H         20.90685        20.33269        -0.72935
H         24.73311         0.23242        -1.14790
H         23.04567        20.16815         0.51481
H         27.20971         0.32199        -1.73135
H         25.20958        19.95026         1.79907
H         29.83817         0.35695        -1.54068
H         27.39134        19.84505         2.80460
H         31.70628         1.47044        -0.39804
H         32.68786         3.43947         0.68913
H         32.50774         5.73123         1.56077
H         32.27298         7.46511         2.43426
H         31.80675         9.62950         3.52390
H         32.80183        12.58433         0.94705
H         32.61704        14.89342         1.81225
H         32.27822        16.46506         3.02077
H         29.72572        19.87906         3.60086
H         31.94360        18.77752         3.79078
