         762
 CSIRO Nanostructure Databank - Neutral Graphene Oxide Data Set
C         23.09975        24.54514        -1.78355
C         21.93025        25.27815        -2.11849
C         22.76571        27.17364        -0.78830
C         21.73846        26.53180        -1.61093
C         22.66758        28.70275        -0.52661
C         21.59320        29.49486        -1.14339
C         22.95647        31.54172        -1.11464
C         21.72605        30.82137        -1.37623
C         23.10707        32.89130        -1.57159
C         22.06113        33.76887        -2.08921
C         23.03299        36.05270        -1.53229
C         22.02887        35.14911        -2.07048
C         22.84680        37.41167        -1.08920
C         21.67636        38.23466        -1.28807
C         22.80805        40.29198        -0.48192
C         21.64345        39.55922        -0.91160
C         22.87380        41.69394        -0.37579
C         21.68257        42.50025        -0.45315
C         22.87862        44.62009        -0.07108
C         21.67835        43.85829        -0.26631
C         22.87409        46.00110         0.09283
C         21.67043        46.78055         0.01768
C         22.95700        48.85894        -0.02710
C         21.71493        48.15026        -0.03455
C         25.41707        22.92356        -1.02884
C         25.32658        24.34964        -0.55510
C         24.13152        25.13363        -1.06000
C         25.27704        27.17730        -0.23902
C         24.07063        26.49655        -0.65780
C         25.20623        28.62297         0.13416
C         23.92339        29.42400        -0.12147
C         25.24054        31.56026        -0.16258
C         24.04520        30.86632        -0.48184
C         25.37914        32.89583        -0.58743
C         24.40675        33.41242        -1.44509
C         25.25436        35.97576        -0.41844
C         24.35219        35.55161        -1.39987
C         24.90334        37.18911         0.17964
C         23.90421        38.01769        -0.35811
C         25.35680        40.23387        -0.08431
C         24.05386        39.50286        -0.37859
C         25.30616        41.70678         0.09272
C         24.13626        42.38829        -0.11446
C         25.42078        44.60889         0.11313
C         24.17279        43.89046        -0.35778
C         25.41929        46.01277         0.21509
C         24.13122        46.73829         0.51592
C         25.43071        48.91286         0.19539
C         24.15554        48.20837         0.14591
C         25.47707        50.33701         0.19553
C         27.82774        22.98623        -0.59542
C         26.60991        22.30105        -1.01416
C         27.85129        24.35949        -0.46688
C         26.60181        25.12693        -0.87705
C         27.80959        27.24850        -0.28021
C         26.51203        26.52828        -0.30988
C         27.79468        28.73171        -0.10356
C         26.50514        29.38470         0.27906
C         27.78682        31.60864         0.08575
C         26.48840        30.89402         0.29112
C         27.81273        32.98970        -0.04011
C         26.52257        33.71669        -0.09292
C         27.80029        35.95296        -0.00154
C         26.48910        35.21783         0.00532
C         27.85873        37.36123         0.14358
C         26.78336        38.22239         0.56897
C         27.84890        40.30536        -0.08216
C         26.65826        39.55164         0.20101
C         27.82813        41.67525        -0.01977
C         26.59539        42.40279         0.49282
C         27.85534        44.60858         0.22859
C         26.63322        43.89608         0.19938
C         27.85386        46.01746         0.18007
C         26.63631        46.73488         0.24574
C         27.88590        48.91990         0.34705
C         26.64580        48.19881         0.26704
C         27.90722        50.34741         0.40545
C         26.66179        51.02931         0.30946
C         30.39594        20.14603        -0.78665
C         29.20127        20.81806        -0.86492
C         30.29180        22.91311         0.09057
C         29.02027        22.15857        -0.29607
C         30.25879        24.38267         0.10840
C         29.06939        25.09096        -0.12772
C         30.28814        27.24441         0.23087
C         29.08146        26.51933        -0.06086
C         30.29588        28.71688         0.24457
C         29.05195        29.46262         0.18550
C         30.26641        31.62166         0.31230
C         29.01403        30.85125         0.21862
C         30.25078        33.06030        -0.00890
C         29.03599        33.75579        -0.07589
C         30.28292        35.86334        -0.11018
C         29.01483        35.20127        -0.14393
C         30.37217        37.29878        -0.40616
C         29.02069        38.08908        -0.33986
C         30.32681        40.24302        -0.63978
C         29.16727        39.54284         0.06402
C         30.32966        41.73787        -0.50715
C         29.11887        42.38342         0.09771
C         30.43687        44.56986         0.05779
C         29.14878        43.87277         0.25578
C         30.43725        46.03650         0.07764
C         29.12397        46.77418         0.07315
C         30.33848        48.89511         0.56762
C         29.12552        48.21884         0.40349
C         30.36554        50.31150         0.59978
C         29.16295        51.04391         0.51270
C         30.36703        53.17950         0.80560
C         29.20922        52.48381         0.68012
C         32.94482        18.69349        -0.52277
C         32.87760        20.11118        -0.38697
C         31.62118        20.77861        -0.42031
C         32.86415        22.98437        -0.06860
C         31.58003        22.24376        -0.27124
C         32.81752        24.33988         0.56182
C         31.46249        25.09230         0.54075
C         32.74342        27.25275         0.89445
C         31.47882        26.55197         0.53239
C         32.78205        28.73367         0.58872
C         31.50375        29.39659         0.25908
C         32.82089        31.47561        -0.34758
C         31.57196        30.86948         0.29028
C         32.77244        33.03601        -0.39987
C         31.50390        33.73385         0.00674
C         32.69219        35.88137         0.45964
C         31.48225        35.16004         0.06157
C         32.73996        37.43342         0.37277
C         31.58314        38.06401        -0.23680
C         32.91358        40.21104        -0.43868
C         31.65412        39.46732        -0.63540
C         32.91041        41.69310        -0.59679
C         31.62812        42.47729        -0.50634
C         32.88735        44.57756         0.21922
C         31.64853        43.89346        -0.02945
C         32.86610        45.99313         0.57668
C         31.65778        46.71838         0.48771
C         32.91962        48.82823         0.75815
C         31.56424        48.12636         1.02681
C         32.92262        50.32392         0.97766
C         31.67263        51.01809         0.58320
C         32.94557        53.21638         0.98132
C         31.67606        52.53069         0.62768
C         32.98600        54.62036         0.99187
C         35.37847        18.69226        -0.30697
C         34.14124        18.01540        -0.48245
C         35.36318        20.10941        -0.15934
C         34.11725        20.82548        -0.18888
C         35.31732        22.94526         0.26277
C         34.13000        22.23125         0.00912
C         35.26883        24.37187         0.50280
C         34.07924        25.07090         0.59564
C         35.31918        27.24082         0.66020
C         34.07347        26.49092         1.12596
C         35.32051        28.65904         0.16088
C         34.06413        29.45542         0.39399
C         35.37402        31.51502         0.16987
C         34.10501        30.81932         0.16853
C         35.37854        32.99564         0.10962
C         34.08126        33.74303        -0.03361
C         35.24538        35.90572         0.78036
C         33.98063        35.12164         0.56980
C         35.21337        37.37796         0.54575
C         34.06465        38.09416         0.27978
C         35.29922        40.27051         0.11466
C         34.07641        39.53169        -0.06776
C         35.33614        41.66053         0.16466
C         34.16074        42.45615        -0.20671
C         35.31620        44.47113         0.68333
C         34.11246        43.86843         0.24527
C         35.28008        45.86245         1.16914
C         34.06104        46.63598         0.96670
C         35.39046        48.77862         1.31775
C         34.05787        48.06394         1.45464
C         35.33581        50.25083         1.54425
C         34.08819        51.00949         1.21236
C         35.36643        53.18879         1.34186
C         34.13998        52.47802         1.19020
C         35.41083        54.59467         1.17466
C         34.19280        55.29759         1.06226
C         37.88063        15.88504        -0.45334
C         36.67710        16.56432        -0.42783
C         37.85909        18.67884        -0.12786
C         36.63131        17.97175        -0.28386
C         37.83680        20.10870         0.03658
C         36.59058        20.81990         0.02227
C         37.79298        22.94290         0.29988
C         36.57554        22.24050         0.22295
C         37.83050        24.36934         0.67357
C         36.51532        25.10053         0.84491
C         37.79029        27.27255         0.63377
C         36.52272        26.57301         0.68386
C         37.78509        28.69210         0.65190
C         36.59482        29.40858         0.48390
C         37.85715        31.56475         0.56105
C         36.58350        30.83869         0.42261
C         37.82597        33.03751         0.54248
C         36.60332        33.70513         0.55032
C         37.85988        35.91428         0.58771
C         36.56540        35.16658         0.75519
C         37.81584        37.34811         0.20440
C         36.50908        38.05328         0.25323
C         37.85442        40.23132         0.43492
C         36.53388        39.52611         0.44210
C         37.79775        41.67463         0.08251
C         36.54308        42.37729         0.43048
C         37.86715        44.41672         0.83887
C         36.54942        43.75791         0.60957
C         37.87343        45.85199         1.29908
C         36.57178        46.60317         1.46006
C         37.88800        48.79684         1.46164
C         36.56795        48.09586         1.38424
C         37.95364        50.28676         1.57619
C         36.62830        50.99320         1.73839
C         37.94883        53.20222         1.54596
C         36.62983        52.48760         1.67420
C         37.89755        54.64057         1.20977
C         36.69116        55.30867         1.08612
C         37.83636        57.43001         0.58547
C         36.69654        56.70476         0.68409
C         40.46041        14.48327        -0.56963
C         40.37533        15.85733        -0.46100
C         39.11286        16.56836        -0.34674
C         40.34313        18.70147         0.02849
C         39.10259        17.97960        -0.16660
C         40.31102        20.10697         0.26361
C         39.05398        20.80875         0.20119
C         40.23587        22.96655         0.23958
C         39.03561        22.24659         0.22896
C         40.22471        24.42789        -0.13346
C         39.04255        25.16469         0.44558
C         40.30340        27.30269         0.44986
C         39.03836        26.54987         0.54872
C         40.31693        28.69739         0.61344
C         39.04969        29.40555         1.06423
C         40.35503        31.59061         1.02520
C         39.03584        30.88683         0.75655
C         40.33742        33.07017         0.67063
C         39.06361        33.76526         0.51126
C         40.21304        35.87427        -0.17565
C         39.08962        35.17164         0.28505
C         40.24183        37.33146        -0.24285
C         39.10842        38.05794         0.14649
C         40.31827        40.22139        -0.29211
C         39.21150        39.52558         0.45590
C         40.30791        41.69642        -0.64120
C         39.03278        42.43805        -0.25308
C         40.33789        44.45157         0.35293
C         39.11196        43.83193         0.24468
C         40.39093        45.88768         0.73074
C         39.14855        46.62631         1.10992
C         40.24016        48.86335         0.38220
C         39.03519        48.09060         0.80440
C         40.31186        50.33234         0.66167
C         39.16940        51.02846         1.09382
C         40.37914        53.16197         0.94412
C         39.20191        52.45432         1.21329
C         40.50556        54.64322         1.29849
C         39.16327        55.38509         1.30706
C         40.38395        57.56199         0.72828
C         39.11301        56.86823         1.04054
C         40.58614        58.85626         1.14720
C         42.89752        14.46225        -0.40558
C         41.71141        13.79677        -0.50683
C         42.94809        15.92041        -0.54368
C         41.61267        16.65654        -0.52039
C         42.80610        18.73504         0.26718
C         41.59614        18.05594        -0.05193
C         42.76487        20.12195         0.61831
C         41.51323        20.79491         0.55130
C         42.68537        23.01388         0.96681
C         41.43662        22.26114         0.69474
C         42.80912        24.42018         0.48378
C         41.55347        25.14568         0.07383
C         42.77377        27.28405         0.35861
C         41.53385        26.60584         0.27097
C         42.77964        28.70442         0.35026
C         41.54680        29.42487         0.48140
C         42.75992        31.53414         0.09098
C         41.55937        30.84651         0.46259
C         42.74045        32.91946        -0.27301
C         41.57189        33.72822         0.04792
C         42.59079        35.77578        -1.12280
C         41.38220        35.06966        -0.58738
C         42.53110        37.28432        -1.21084
C         41.40502        38.05568        -0.69042
C         42.70412        40.28359        -0.83831
C         41.46944        39.50720        -0.61784
C         42.77034        41.66029        -0.57273
C         41.58371        42.40486        -0.26874
C         42.86197        44.48901         0.10599
C         41.60035        43.77166         0.02114
C         42.82135        45.94802         0.37776
C         41.55233        46.65281         0.25669
C         42.80523        48.87449        -0.08104
C         41.50140        48.09513         0.07024
C         42.76395        50.34802         0.12042
C         41.54368        51.03425         0.44180
C         42.78013        53.18311         0.30887
C         41.56683        52.45981         0.57586
C         42.71820        54.64574         0.16521
C         41.58332        55.34408         0.46608
C         42.69741        57.54025        -0.20959
C         41.40157        56.78185        -0.05397
C         42.84906        58.83865         0.25345
C         41.80973        59.51950         0.90692
C         45.39465        16.03535        -0.19666
C         44.15928        16.67676        -0.13571
C         45.27377        18.73556         0.63739
C         44.08140        18.04825         0.24494
C         45.19880        20.11242         1.09201
C         43.98611        20.79775         1.02729
C         45.20719        23.06516         1.46697
C         43.93924        22.25957         1.31360
C         45.24279        24.49873         1.08041
C         44.04036        25.18448         0.79163
C         45.25982        27.29364         0.55217
C         44.02375        26.57451         0.53754
C         45.26076        28.67742         0.23142
C         44.02524        29.40580         0.20593
C         45.26794        31.49216        -0.40497
C         43.98124        30.80669         0.01741
C         45.24696        33.00161        -0.29968
C         43.96189        33.58007        -0.78207
C         45.11489        35.84311        -0.70445
C         43.93098        35.05929        -1.12984
C         44.88255        37.18604        -0.53560
C         43.86748        38.02024        -1.16769
C         45.26736        40.28539        -1.15044
C         43.94674        39.53998        -1.15405
C         45.31322        41.78168        -1.00892
C         44.01532        42.47254        -0.71234
C         45.37213        44.52196        -0.14203
C         44.07900        43.86280        -0.19208
C         45.40620        45.96447         0.19506
C         44.11995        46.73810         0.31582
C         45.27886        48.85942        -0.34647
C         44.09411        48.17119         0.01314
C         45.16341        50.33236        -0.58332
C         43.95227        51.05430        -0.07510
C         45.23568        53.21534        -0.13262
C         43.95446        52.47750        -0.00258
C         45.20605        54.72696        -0.36267
C         43.85395        55.32312        -0.53348
C         45.11360        57.48496        -1.07901
C         43.82825        56.81485        -0.79795
C         46.56409        16.72046         0.12995
C         47.78225        18.67176         1.03882
C         46.52090        18.04880         0.55223
C         47.74905        20.06598         1.56812
C         46.43710        20.80136         1.57556
C         47.78579        23.02503         1.37063
C         46.50063        22.31300         1.62779
C         47.75251        24.44729         1.18713
C         46.48581        25.18258         1.05789
C         47.70485        27.34167         0.94363
C         46.48201        26.58163         0.81069
C         47.73553        28.68138         0.65054
C         46.58229        29.33839        -0.07793
C         47.59135        31.59431         0.64416
C         46.47404        30.81606         0.15820
C         47.56969        33.11818         0.53688
C         46.35160        33.76698        -0.03211
C         47.56709        35.93072        -0.18873
C         46.37395        35.22355        -0.25549
C         47.69309        37.35145        -0.66941
C         46.65539        38.35171        -0.39765
C         47.77540        40.29627        -1.40300
C         46.55894        39.57908        -0.96752
C         47.78190        41.74752        -1.06354
C         46.61779        42.45493        -0.76042
C         47.88787        44.59123        -0.40580
C         46.60734        43.86892        -0.41794
C         47.92213        46.01174        -0.37769
C         46.66876        46.76022        -0.09415
C         47.68997        48.88598        -1.01824
C         46.50512        48.18978        -0.48806
C         47.72799        50.41052        -1.08473
C         46.42588        51.12084        -0.85359
C         47.64826        53.28445        -0.64713
C         46.47628        52.55492        -0.51554
C         47.63772        54.72041        -0.80169
C         46.41311        55.40648        -0.85683
C         46.28642        56.80644        -1.18276
C         50.23635        18.74237         0.96994
C         49.09551        18.10782         0.66092
C         50.30926        20.10747         1.54127
C         49.01689        20.88801         1.89766
C         50.24112        23.03717         1.21496
C         49.00032        22.32925         1.39284
C         50.22216        24.46965         1.14958
C         48.97367        25.14891         1.15959
C         50.20828        27.37085         1.60504
C         48.93440        26.62003         1.37318
C         50.18371        28.91475         1.58487
C         48.98954        29.44996         0.77122
C         50.10071        31.74748         1.24649
C         48.92658        30.93836         0.70031
C         50.07204        33.16663         0.69901
C         48.88439        33.80907         0.45293
C         50.15367        35.89122        -0.15203
C         48.84096        35.32280         0.37765
C         50.25144        37.26870        -0.71994
C         48.99327        37.99489        -1.09805
C         50.31217        40.20952        -1.05414
C         49.05707        39.48909        -1.34331
C         50.28569        41.66414        -1.10561
C         49.05811        42.39313        -1.00012
C         50.38909        44.27216        -0.45351
C         49.08692        43.76885        -0.62337
C         50.44460        46.38572        -0.40104
C         49.08795        46.88629        -0.53820
C         50.19124        49.00742        -1.24708
C         48.98376        48.21502        -0.89964
C         50.20628        50.45551        -0.91139
C         49.01208        51.11951        -0.80096
C         50.23858        53.38390        -0.52277
C         48.94998        52.57385        -0.50576
C         50.10780        54.77912        -0.98426
C         48.90063        55.38602        -1.08470
C         52.74297        20.22879         0.64508
C         51.57628        20.89366         1.23167
C         52.68014        23.08423         0.78080
C         51.49535        22.36483         1.11038
C         52.66819        24.52796         0.83868
C         51.47693        25.19131         1.10298
C         52.74754        27.45414         1.02229
C         51.51398        26.65067         1.41363
C         52.64243        28.90985         0.81014
C         51.44389        29.59580         1.07030
C         52.58237        31.71878         0.72093
C         51.39340        31.00118         0.96326
C         52.57578        33.17724         0.76157
C         51.34939        33.87412         0.66268
C         52.59189        35.96699         0.46622
C         51.37842        35.26604         0.42338
C         52.60017        37.44079         0.30995
C         51.41131        38.11795        -0.29520
C         52.67090        40.34803        -0.28974
C         51.45958        39.54586        -0.70849
C         52.79787        41.66050        -1.05098
C         51.52933        42.34717        -1.18926
C         52.73125        44.52802        -1.49738
C         51.53918        43.75385        -1.07898
C         52.75010        46.07680        -1.57941
C         51.52657        46.84016        -1.08403
C         52.75423        48.96073        -1.01546
C         51.48714        48.28110        -1.42573
C         52.80339        50.43800        -1.04284
C         51.52727        51.11885        -0.70946
C         52.82853        53.28232        -0.96618
C         51.56025        52.64770        -0.57293
C         53.84692        20.95805         0.30463
C         55.06140        23.09347        -0.05900
C         53.86882        22.37017         0.43034
C         55.04828        24.59132        -0.04029
C         53.99896        25.27853         0.80653
C         54.99485        27.47069        -0.05389
C         53.91065        26.75214         0.46913
C         54.96984        28.89356        -0.08053
C         53.80189        29.61168         0.35717
C         54.98344        31.82379         0.13982
C         53.75959        31.03494         0.37590
C         55.06972        33.18865         0.71798
C         53.80141        33.88945         0.83057
C         55.03287        36.04521         1.07896
C         53.79380        35.30267         0.77382
C         55.16350        37.45625         0.65388
C         53.93133        38.09635         0.11023
C         55.22042        40.28651        -0.20840
C         53.93941        39.52708        -0.28793
C         55.23676        41.52462        -1.04439
C         54.00983        42.31543        -1.18756
C         55.30543        44.56899        -1.37876
C         54.05289        43.76035        -1.59881
C         55.24079        45.97895        -0.99601
C         54.04062        46.69606        -1.10462
C         55.28676        48.91276        -1.07437
C         54.01859        48.15740        -0.89422
C         55.29086        50.38221        -0.90908
C         54.01419        51.11386        -0.95598
C         53.98348        52.56512        -1.02847
C         57.51508        23.18235        -0.24483
C         56.38421        22.45364        -0.09849
C         57.50517        24.62723        -0.41926
C         56.32336        25.31283        -0.26203
C         57.40881        27.47282        -1.15262
C         56.19327        26.75230        -0.59750
C         57.39971        29.00606        -1.10940
C         56.14131        29.65413        -0.59044
C         57.53076        31.68402         0.30640
C         56.22849        31.11688        -0.23977
C         57.52967        33.23886         0.16330
C         56.27937        33.83703         0.78716
C         57.64417        35.97570         1.20887
C         56.33312        35.24025         1.22014
C         57.66118        37.48018         0.95577
C         56.36926        38.09405         0.55725
C         57.72844        39.84686        -0.65345
C         56.45785        39.49645         0.06246
C         57.60284        40.94061        -1.65800
C         56.37833        41.76260        -1.73642
C         57.74750        44.40707        -0.81657
C         56.54597        44.00472        -1.58471
C         57.60673        45.84804        -0.23882
C         56.45539        46.64601        -0.66076
C         57.76561        48.85248        -0.44784
C         56.57917        48.10040        -0.87677
C         57.71620        50.22707        -0.46495
C         56.52087        50.97858        -0.71869
C         59.95452        24.62433        -0.89832
C         58.73138        25.32542        -0.82439
C         59.80110        27.16996        -1.95539
C         58.67783        26.67778        -1.25976
C         59.77026        29.50807        -1.86710
C         58.65559        29.85848        -1.08142
C         59.94072        31.83579        -0.34703
C         58.73851        31.08975        -0.38511
C         60.05200        32.99207         0.64113
C         58.82168        33.87488         0.64492
C         60.18062        35.90574         1.16023
C         58.88329        35.19134         0.97905
C         60.20997        37.43975         1.00163
C         58.95730        38.13246         0.57923
C         60.31096        39.98124        -0.58358
C         59.01160        39.29695        -0.13541
C         60.26056        41.51231        -0.30452
C         59.33587        42.33067        -0.98950
C         60.05526        44.31746         0.16465
C         59.07919        43.69139        -0.66680
C         60.08405        45.78150         0.33454
C         58.83773        46.56216         0.23063
C         60.27614        48.65571         0.08936
C         58.92303        48.09015         0.11591
C         61.08247        25.18631        -1.48749
C         60.99416        26.44933        -2.07264
C         60.92269        30.29878        -1.93561
C         61.02327        31.43867        -1.14165
C         61.32897        33.79343         0.57371
C         61.39072        35.10050         0.87625
C         61.47299        38.15142         0.69064
C         61.51498        39.33084         0.05472
C         61.09133        42.14275         0.63220
C         61.05052        43.53060         0.77784
C         61.26844        46.45560         0.51824
C         61.35849        47.88028         0.37868
O         55.93212        40.45213         1.05857
O         38.24060        49.41573         2.72966
O         43.50311        46.40760         1.61944
O         47.31077        32.46800         1.81960
O         29.30431        42.95616         1.44028
O         24.98309        39.88284        -1.48887
O         38.04765        42.10549        -1.31384
O         37.21387        24.59298         2.00706
O         56.37705        26.96379        -2.04901
O         42.49552        24.63298        -0.94807
O         32.03650        24.46489         1.77552
O         24.31440        29.00625         1.21658
O         56.06581        48.47184        -2.21894
O         24.75045        34.51086        -2.24191
O         44.56872        42.43774        -2.08171
O         54.63418        23.89703        -1.25024
O         32.60534        28.21887         1.99171
O         42.03000        48.46361        -1.27152
O         37.03529        37.61145        -1.05597
O         27.82102        28.18889        -1.47575
O         32.40337        33.43832        -1.72483
O         34.50676        35.31690         1.91178
O         46.27045        46.40408         1.29139
O         45.39726        54.17282         0.97179
O         58.57722        47.42496         1.38264
O         41.29407        33.81672         1.50740
O         47.68762        18.92679         2.49914
O         30.86829        39.78031        -1.86495
O         35.79826        46.07659         2.58480
O         29.56104        37.66880        -1.58656
O         49.98421        29.33575         2.91812
O         39.17878        48.47845        -0.59237
O         51.68261        51.78446         0.58968
O         38.04108        44.78206         2.25817
O         43.26605        37.63509        -2.42434
O         39.09382        56.35831         2.42605
O         37.14653        39.98363         1.70053
O         32.45720        36.72981         1.61804
O         22.21049        27.75573         0.46117
O         50.78062        48.73783        -2.60050
O         44.35479        22.76101         2.62163
O         33.79657        42.23654        -1.62048
O         42.35859        16.45706        -1.77489
O         58.70336        41.71621        -2.08396
O         35.85675        50.55386         2.89207
O         34.98179        33.64690        -1.18037
O         29.49309        22.25028         1.10166
O         52.48988        27.00826         2.44017
O         53.23137        48.50025         0.31202
O         31.08470        31.41322         1.54724
O         55.54943        35.62271         2.37943
O         47.64291        49.62055        -2.30115
O         29.82874        46.56923        -1.20932
O         48.15040        37.35441        -2.07564
O         41.64470        35.13060        -2.02668
O         56.40161        29.50767        -2.04095
O         57.27194        44.68818         0.56734
O         49.28986        30.17101        -0.49748
O         57.57107        39.59130        -2.14206
O         59.73870        28.37172        -2.67499
O         49.43303        26.88004         2.73714
O         54.04673        38.50318        -1.31881
O         44.03783        34.06402        -2.17234
O         37.35507        35.61446         1.92367
O         56.59300        42.92431        -2.47910
O         46.40095        21.51895         2.84868
O         29.41216        39.59901         1.44373
O         32.23505        22.95183        -1.40153
O         25.68305        37.66279         1.23104
O         45.61678        37.89944         0.42599
O         41.73942        22.83813         2.07243
O         57.70898        36.92631         2.30316
O         50.43567        36.10061        -1.57847
O         51.30336        20.28674         2.57641
O         31.82210        51.81137        -0.65569
O         40.11559        46.29148         2.14916
O         53.24489        44.00275        -2.78408
O         55.50784        31.87568        -1.26474
O         45.47145        50.81813        -1.93276
O         60.24474        36.79471         2.30914
O         37.34193        52.98687         2.86581
O         43.49639        55.80927        -1.86032
O         30.79481        42.38508        -1.72170
O         44.61216        39.93298        -2.40736
O         26.53825        30.11717         1.53074
O         26.23274        34.39703         1.19568
O         48.45340        39.89402        -2.61933
O         50.59054        45.29838         0.45287
O         51.62823        38.08652         1.18701
O         49.56407        53.06328         0.73547
O         24.29575        43.98533        -1.82850
H         23.59182        43.42436        -2.21954
O         45.28796        31.25982        -1.86487
H         45.75433        30.39548        -2.02890
O         60.07368        32.34284         1.97220
H         60.20593        33.04816         2.64254
O         46.87572        29.11621        -1.53596
H         47.79789        29.44857        -1.66852
O         33.84937        48.02835         2.89891
H         34.55717        47.43882         3.26435
O         26.65639        25.29901        -2.32092
H         27.33361        25.98049        -2.52244
O         40.83681        56.57870        -1.40232
H         41.57629        56.22306        -1.95518
O         26.65636        42.29852         1.94714
H         27.59649        42.45505         2.21106
O         39.67205        39.60466         1.85806
H         38.87276        39.49584         2.42682
O         41.01151        54.64495         2.65904
H         40.53288        55.36013         3.14267
O         31.29162        47.97521         2.44708
H         32.14640        47.81736         2.92560
O         48.85162        35.77097         1.77860
H         48.37830        35.10672         2.32505
O         52.73661        46.43105        -2.99823
H         53.11980        45.66564        -3.49302
O         57.50236        33.58121        -1.24602
H         56.72339        33.11292        -1.64584
O         49.97136        31.90259         2.66853
H         49.98006        30.96810         3.05688
O         54.53300        25.21818         2.16640
H         53.91535        25.74798         2.73079
O         49.01511        21.04873         3.32840
H         48.68030        20.21155         3.71962
O         40.38224        41.72976        -2.10481
H         39.46113        41.63884        -2.44493
O         39.98038        24.44933        -1.58399
H         40.85980        24.36436        -2.01988
O         34.23232        26.35046         2.56040
H         33.79087        27.12609         2.97971
O         25.22658        24.31615         0.89201
H         24.39143        23.86793         1.13858
O         35.32695        28.48944        -1.32557
H         35.17181        29.37605        -1.72183
O         40.54905        31.53175         2.48028
H         41.09727        32.31711         2.72025
O         33.19320        48.67272        -0.66112
H         32.56958        49.24009        -1.16375
O         52.49089        40.74884         1.09880
H         51.58240        41.09721         1.21251
O         32.78859        31.01223        -1.72040
H         32.64991        31.84208        -2.26497
O         60.47471        39.75208        -1.99917
H         59.59235        39.78340        -2.43547
O         57.54271        31.33020         1.70517
H         58.43720        31.57309         2.06254
O         24.06984        46.73915         1.99412
H         23.25656        47.22526         2.24898
O         39.05887        29.28634         2.52621
H         39.66721        29.98310         2.87570
H         23.17654        23.50325        -2.11949
H         21.15037        24.80023        -2.72682
H         20.78199        27.04793        -1.76451
H         20.63036        29.00292        -1.33697
H         20.87983        31.37514        -1.80496
H         21.13561        33.27916        -2.43142
H         21.08116        35.61123        -2.39218
H         20.77535        37.78112        -1.72576
H         20.70012        40.10573        -1.05593
H         20.71613        41.99718        -0.59449
H         20.70580        44.36950        -0.24374
H         20.69887        46.27978        -0.09239
H         22.92178        49.94407        -0.19555
H         20.78403        48.72306        -0.14684
H         24.50605        22.35030        -1.25303
H         24.54329        50.91117         0.13001
H         26.66422        21.23276        -1.26418
H         26.62978        52.12679         0.31976
H         30.41981        19.10355        -1.13422
H         28.34915        20.31518        -1.34178
H         30.32644        54.24937         1.05360
H         28.26248        53.02940         0.79357
H         32.01971        18.11674        -0.65261
H         32.05988        55.19771         0.87179
H         34.12186        16.92326        -0.58891
H         34.17895        56.39319         1.01533
H         37.86571        14.79495        -0.58140
H         35.75064        15.98555        -0.53205
H         37.82656        58.43947         0.15097
H         35.75601        57.16750         0.35828
H         39.54950        13.87018        -0.58744
H         39.78779        59.37476         1.69725
H         43.81703        13.90514        -0.17895
H         41.69692        12.69951        -0.44460
H         43.80909        59.35498         0.10983
H         41.95718        60.55075         1.25143
H         45.46282        14.98877        -0.51993
H         45.10126        58.56574        -1.27955
H         47.51777        16.18187         0.07389
H         47.18802        57.36754        -1.46444
H         51.18471        18.22934         0.76269
H         49.14933        17.11364         0.19795
H         51.01775        55.33640        -1.25027
H         48.87509        56.43805        -1.40034
H         52.79283        19.13394         0.60988
H         52.84910        54.36472        -1.15942
H         54.73422        20.43545        -0.07642
H         54.92361        53.09588        -1.23595
H         58.47424        22.64936        -0.24400
H         56.46342        21.37263         0.08325
H         58.60848        50.79908        -0.17166
H         56.59402        52.07188        -0.63384
H         60.03036        23.60257        -0.50769
H         60.41055        49.71282        -0.17959
H         62.01831        24.61408        -1.54082
H         61.83504        26.87814        -2.63201
H         61.74858        29.99546        -2.59124
H         61.95000        32.02681        -1.16346
H         62.26875        33.24568         0.40870
H         62.36760        35.60452         0.91366
H         62.40160        37.71756         1.09045
H         62.48945        39.80795        -0.12876
H         61.81452        41.55601         1.21581
H         61.76705        44.01175         1.45688
H         62.20703        45.89466         0.62947
H         62.35932        48.33424         0.39823
