         661
 CSIRO Nanostructure Databank - Neutral Graphene Oxide Data Set
C          5.76659        31.68008        -0.28943
C          5.95902        32.99381        -0.63026
C          8.36171        27.41825         0.24267
C          8.32558        28.75940        -0.06227
C          7.10954        29.52978         0.19263
C          8.59370        31.60692        -1.14954
C          6.74708        30.63582        -0.53425
C          8.47713        33.00306        -0.97515
C          7.20605        33.68734        -0.95430
C          8.45263        35.83112        -0.98164
C          7.22809        35.08165        -0.99560
C          8.47405        37.24436        -1.08937
C         10.67926        23.04293         0.58693
C         10.68381        24.40752         0.37714
C          9.50442        25.22507         0.32992
C         10.83582        27.28325        -0.01943
C          9.54699        26.59773         0.12464
C         10.84582        28.71707        -0.19152
C          9.58589        29.35742        -0.73123
C         10.85339        31.59263        -0.35017
C          9.68006        30.86913        -0.70474
C         10.88121        32.99525        -0.49505
C          9.69022        33.71428        -0.74954
C         10.90641        35.86120        -0.57555
C          9.68364        35.14372        -0.77998
C         10.90176        37.28242        -0.68198
C          9.68039        37.96621        -0.98955
C         10.93138        40.07526        -1.16694
C          9.73660        39.37913        -1.20899
C         10.91513        41.54664        -1.52165
C         13.18093        18.74824         0.83022
C         13.15132        20.15638         0.86727
C         11.92801        20.90022         0.72738
C         13.13697        23.03339         1.00180
C         11.90913        22.28733         0.73273
C         13.13690        24.40823         0.86313
C         12.01636        25.05991         0.09151
C         13.30240        27.24882         0.22077
C         12.00297        26.56345         0.17077
C         13.28753        28.77420         0.24857
C         12.00083        29.46613         0.06675
C         13.16063        31.64493         0.55417
C         12.03473        30.89061         0.06455
C         13.20548        33.02385         0.42261
C         12.21269        33.69424        -0.49044
C         13.29169        35.90859         0.01427
C         12.11330        35.18003        -0.28376
C         13.31081        37.32496        -0.14820
C         12.12014        38.00589        -0.54403
C         13.38884        40.11281        -0.73975
C         12.14770        39.40634        -0.81459
C         13.41148        41.49865        -1.04835
C         12.25594        42.23701        -1.41236
C         13.51825        44.35930        -1.68936
C         12.30910        43.60448        -1.70340
C         13.61278        45.71505        -1.95698
C         15.79693        14.50275         0.36364
C         15.73932        15.90338         0.52004
C         14.48204        16.60548         0.73459
C         15.66876        18.78927         0.63835
C         14.39404        17.98788         0.82076
C         15.59275        20.14047         1.33680
C         14.35570        20.90928         1.13083
C         15.59770        23.00301         1.53159
C         14.35404        22.29529         1.31717
C         15.58912        24.45832         1.67257
C         14.26934        25.21843         1.31936
C         15.58888        27.32596         1.19712
C         14.41995        26.60597         0.90874
C         15.58139        28.78042         1.14568
C         14.42302        29.46671         0.86283
C         15.51051        31.67490         1.64871
C         14.27935        30.90609         1.19543
C         15.51263        33.16868         1.58587
C         14.28557        33.85271         0.98096
C         15.63427        35.95470         0.83694
C         14.44674        35.24806         0.54087
C         15.70527        37.36320         0.50711
C         14.53509        38.03680         0.04610
C         15.83891        40.08257        -0.23106
C         14.58323        39.42404        -0.29553
C         15.94411        41.40178        -0.89131
C         14.69467        42.21313        -0.93972
C         16.05480        44.27725        -1.68577
C         14.75671        43.66029        -1.28089
C         16.10583        45.73938        -1.73681
C         14.86648        46.43490        -1.87590
C         16.11580        48.53231        -1.89475
C         14.88760        47.83287        -1.96529
C         16.12889        49.95538        -1.88184
C         18.41063        10.27382         0.01249
C         18.32971        11.66978         0.16847
C         17.11545        12.38409         0.18194
C         18.21992        14.59838         0.05544
C         17.03403        13.81966         0.20766
C         18.17141        16.00398         0.16064
C         16.95822        16.64346         0.45854
C         18.10887        18.97070         0.57557
C         16.95831        18.04215         1.03025
C         18.16620        20.22306         1.38674
C         16.89239        20.90192         1.59871
C         18.06587        23.11493         1.36443
C         16.84898        22.37246         1.53078
C         18.08094        24.51197         1.40053
C         16.83386        25.21746         1.55304
C         18.03727        27.33654         1.83396
C         16.79059        26.60929         1.52198
C         18.02305        28.83046         1.87694
C         16.87822        29.55012         1.21395
C         17.98690        31.72275         1.82166
C         16.81388        30.99912         1.62904
C         17.98473        33.15025         1.86320
C         16.80612        33.89579         1.57917
C         17.94101        36.15810         1.86169
C         16.79894        35.29032         1.35300
C         18.13712        37.44764         1.09395
C         16.94641        38.07173         0.60595
C         18.27043        40.18741         0.37936
C         17.00344        39.43114         0.19875
C         18.38809        41.57718        -0.18373
C         17.25715        42.08802        -1.01359
C         18.59923        44.24850        -1.30388
C         17.32746        43.51840        -1.47041
C         18.62583        45.64476        -1.58996
C         17.36641        46.38915        -1.74900
C         18.59652        48.56187        -1.86397
C         17.34236        47.80374        -1.81765
C         18.53184        49.98348        -1.48638
C         17.31196        50.66522        -1.57318
C         18.41052        52.81774        -1.04577
C         17.27911        52.09629        -1.33009
C         18.29670        54.30924        -0.85350
C         21.03621         6.10537        -0.88407
C         20.96647         7.60650        -0.97009
C         19.70192         8.26241        -0.48440
C         20.92377        10.27630         0.40380
C         19.65740         9.56868        -0.05450
C         20.90900        11.75137         0.04150
C         19.59925        12.43061         0.25600
C         20.74525        14.63761        -0.40419
C         19.53144        13.91091         0.08488
C         20.72553        16.10438        -0.15971
C         19.41852        16.80957         0.03246
C         20.73724        18.88921         0.77727
C         19.44586        18.27091         0.34849
C         20.72199        20.27145         1.31701
C         19.40609        21.00486         1.65567
C         20.58938        23.17793         0.95676
C         19.30965        22.36715         0.92828
C         20.52538        24.61520         0.96691
C         19.31898        25.26449         1.25376
C         20.47868        27.43764         1.47278
C         19.32101        26.67970         1.53870
C         20.48057        28.85172         1.76057
C         19.30462        29.54852         1.84001
C         20.56750        31.73765         1.91158
C         19.27332        31.00385         2.22023
C         20.55499        33.15556         2.03712
C         19.25576        33.86215         2.15438
C         20.52577        36.09203         1.95597
C         19.23652        35.39136         2.12138
C         20.57675        37.42497         1.56772
C         19.38421        38.11345         1.09586
C         20.77526        40.17494         0.66356
C         19.52455        39.47744         0.69078
C         20.86808        41.51124         0.11939
C         19.71401        42.18848        -0.38273
C         21.08747        44.05225        -1.29060
C         19.75136        43.49385        -0.93094
C         21.06973        45.54675        -1.52038
C         19.90699        46.31997        -1.66530
C         21.08630        48.69307        -1.55041
C         19.90945        47.82210        -1.89760
C         20.99325        50.00075        -1.06267
C         19.67145        50.64723        -0.76853
C         20.86630        52.87435        -0.75689
C         19.68739        52.15809        -0.90364
C         20.84601        54.34009        -0.70100
C         19.61890        55.03915        -0.76788
C         20.80888        57.15946        -0.52982
C         19.62313        56.43916        -0.72247
C         20.78701        58.67090        -0.45503
C         23.30403         3.56569        -2.04031
C         22.24956         4.02662        -1.31297
C         23.57259         6.07914        -0.72865
C         22.21500         5.43758        -0.95284
C         23.45108         7.56767        -0.46836
C         22.21726         8.26722        -0.45522
C         23.45028        10.33932         0.07301
C         22.19312         9.59479        -0.05066
C         23.39546        11.84441         0.02651
C         22.05304        12.46106        -0.14032
C         23.24133        14.64691         0.13132
C         22.08252        13.90707        -0.57901
C         23.18775        16.16123        -0.03728
C         21.98390        16.84376         0.06498
C         23.23604        18.93363         0.52035
C         21.93112        18.23557         0.47964
C         23.21828        20.43875         0.59174
C         21.95316        21.12262         0.99646
C         22.80985        23.35072        -0.11036
C         21.80111        22.56380         0.72518
C         22.91061        24.78359         0.35008
C         21.75420        25.37215         0.77685
C         23.01272        27.45063         1.38990
C         21.70129        26.87322         0.79994
C         22.98712        28.99729         1.33027
C         21.77749        29.53294         2.13031
C         22.99600        31.69263         2.57487
C         21.75609        31.03270         2.03583
C         23.00463        33.19441         2.30338
C         21.78846        33.86497         2.16645
C         23.00133        36.09580         2.32149
C         21.71515        35.33670         2.51067
C         22.83806        37.45793         2.39734
C         21.80303        38.20100         1.70533
C         23.26000        40.24956         1.17931
C         21.96302        39.51512         1.21041
C         23.27655        41.61772         0.70223
C         22.13921        42.23505         0.14166
C         23.43519        44.31049        -0.39779
C         22.22166        43.56164        -0.41006
C         23.53189        45.57641        -1.12454
C         22.39682        46.03744        -1.76601
C         23.51658        48.72800        -1.21625
C         22.37983        48.20595        -1.82162
C         23.43255        50.07298        -0.76626
C         22.18195        50.74369        -0.80218
C         23.34461        52.88728        -0.56559
C         22.14200        52.17697        -0.65471
C         23.36228        54.37529        -0.78364
C         22.04952        55.07075        -0.53761
C         23.23446        57.29212         0.04801
C         22.02913        56.47053        -0.39942
C         23.29454        58.61372        -0.67492
C         22.09028        59.28487        -0.92278
C         23.33649        61.15564        -1.84785
C         22.11388        60.55400        -1.52349
C         24.38828         4.43995        -2.41237
C         25.69097         6.49813        -2.28771
C         24.55960         5.68242        -1.85453
C         26.27495         7.45789        -1.50896
C         24.64054         8.28778        -0.22796
C         25.77139        10.43646        -1.03965
C         24.72203         9.67813        -0.23068
C         25.82513        11.93693        -0.75105
C         24.61578        12.60489        -0.38281
C         25.65851        14.78557        -0.69937
C         24.54409        14.00261        -0.31115
C         25.60801        16.21743        -0.62158
C         24.41936        16.89793        -0.19930
C         25.58678        19.07818        -0.35104
C         24.41505        18.29110        -0.09117
C         25.58535        20.49898        -0.27719
C         24.27955        21.18296        -0.13963
C         25.40364        23.45639        -0.42754
C         24.14755        22.65796        -0.36183
C         25.37680        24.82069        -0.25031
C         24.09286        25.61780        -0.10693
C         25.43826        27.57636         0.87630
C         24.24299        26.89957         0.70456
C         25.49104        28.87175         1.51836
C         24.29624        29.62000         1.78921
C         25.54518        31.61376         2.62061
C         24.28636        30.92775         2.26950
C         25.53847        33.13358         2.69335
C         24.24962        33.92445         2.66138
C         25.69581        36.16075         2.64228
C         24.29239        35.43744         2.70552
C         25.71936        37.49083         1.87264
C         24.72989        38.39391         2.11358
C         25.83621        40.36150         1.47254
C         24.51056        39.65570         1.44791
C         25.82186        41.69704         0.83195
C         24.52687        42.45746         0.92401
C         25.87271        44.39689         0.03353
C         24.60298        43.74640         0.15223
C         25.95499        45.78585        -0.40697
C         24.77894        46.39435        -1.08491
C         25.81925        48.62219        -0.23557
C         24.76394        47.94158        -1.10872
C         25.87486        50.11456        -0.42437
C         24.64154        50.80798        -0.53066
C         25.85290        52.94643        -0.47349
C         24.60412        52.22114        -0.50949
C         25.86195        54.35405        -0.36197
C         24.57056        55.04013        -0.16319
C         25.83072        57.23366        -0.23567
C         24.55624        56.52437         0.04447
C         25.77697        58.56471        -0.67266
C         24.54165        59.23217        -0.95914
C         24.53716        60.51653        -1.55977
C         27.27374         8.48132        -1.75104
C         28.28647        10.62220        -1.27465
C         27.13517         9.77798        -1.26740
C         28.26599        12.01202        -1.22559
C         26.96494        12.69500        -1.10500
C         27.82166        14.96015        -1.77872
C         26.84076        14.13017        -1.17184
C         27.82168        16.35549        -1.64281
C         26.73142        16.99528        -0.98172
C         27.90548        19.17471        -1.18461
C         26.75487        18.41329        -0.81628
C         27.85824        20.58043        -1.14544
C         26.69320        21.25872        -0.70176
C         27.82820        23.42749        -0.87834
C         26.64741        22.72726        -0.68588
C         27.89418        24.94314        -0.85110
C         26.60323        25.63926        -0.40719
C         28.01436        27.55100         0.60350
C         26.67277        27.00469         0.24342
C         28.07753        28.58777         1.73805
C         26.79443        29.39725         1.99569
C         28.15276        31.60161         2.85153
C         26.84018        30.81764         2.54041
C         28.02402        33.08748         2.47538
C         26.79236        33.84612         2.34325
C         28.05788        35.87365         1.73677
C         26.80228        35.22301         2.14839
C         28.17933        37.32978         1.51575
C         26.89287        37.97322         1.02947
C         28.19944        40.09036         0.79029
C         27.00311        39.49161         1.05324
C         28.28142        41.54619         0.71574
C         27.03663        42.31913         0.63945
C         28.39167        44.40881         0.15148
C         27.06337        43.71440         0.31349
C         28.26779        45.88655         0.54868
C         27.11143        46.50660        -0.20152
C         28.32529        48.63890        -0.21583
C         27.15073        47.94798        -0.32620
C         28.37787        50.13118        -0.05690
C         27.07329        50.81968        -0.36483
C         28.35081        52.95370        -0.45302
C         27.08360        52.23276        -0.45363
C         28.31204        54.37334        -0.34206
C         27.08846        55.08075        -0.26488
C         27.04087        56.51019        -0.24096
C         29.55401        12.67822        -1.12001
C         30.94567        14.77927        -1.44455
C         29.83203        13.91931        -1.67351
C         30.96173        16.11830        -1.88718
C         28.94364        17.15561        -2.04227
C         30.34478        19.21272        -1.83071
C         29.08023        18.48363        -1.68678
C         30.28175        20.59145        -1.82004
C         28.96572        21.35532        -1.81264
C         30.23314        23.50005        -1.30451
C         29.04722        22.77089        -1.26152
C         30.34563        24.81793        -0.73226
C         29.12167        25.37150        -0.02077
C         30.49814        27.35686         0.81449
C         29.15041        26.85433         0.29794
C         30.44365        28.92144         0.70709
C         29.36345        29.45142         1.68813
C         30.70142        31.64472         1.84515
C         29.44782        30.87018         2.21557
C         30.99843        32.84378         2.41858
C         29.15058        33.85464         2.66734
C         30.65728        35.86642         2.06619
C         29.36820        35.12455         2.00143
C         30.61667        37.26726         1.94596
C         29.39404        37.97011         1.50067
C         30.72145        40.05690         0.55137
C         29.44021        39.23488         0.58640
C         30.72504        41.43333         0.55067
C         29.50012        42.19559         0.65930
C         30.83251        44.41559         0.70631
C         29.50442        43.68967         0.94478
C         30.85352        45.90241         0.48627
C         29.58102        46.62265         0.31632
C         30.84008        48.66643        -0.33137
C         29.59098        47.93149        -0.08329
C         30.81171        50.01350        -0.63704
C         29.51706        50.75494        -0.86722
C         29.54711        52.24232        -0.60272
C         31.86563        17.14144        -1.55569
C         32.82371        19.33064        -1.90319
C         31.66099        18.53853        -1.81243
C         32.79901        20.72730        -2.11451
C         31.48064        21.38342        -2.11684
C         32.71618        23.59722        -1.80764
C         31.43769        22.88313        -1.88823
C         32.71460        24.91171        -1.38232
C         31.54636        25.50300        -0.75836
C         32.95747        27.57180        -0.17816
C         31.71172        26.75138         0.04348
C         32.96060        28.99417         0.19638
C         31.81551        29.54372         1.02525
C         33.14498        31.73357         1.11242
C         31.77273        31.08147         0.92646
C         33.19913        33.11405         1.47925
C         32.03657        33.74628         1.97482
C         33.11652        35.93256         1.80214
C         31.92267        35.17107         2.04740
C         33.09238        37.34028         1.99125
C         31.85325        37.94945         2.24979
C         33.24967        40.08885         0.64933
C         31.99806        39.37542         0.22022
C         33.26889        41.47475         0.38740
C         31.97826        42.15961         0.18283
C         33.30749        44.39009         0.18267
C         32.00828        43.66159         0.17948
C         33.29379        45.79513         0.00820
C         32.09851        46.55439        -0.00149
C         32.06657        47.91633        -0.30379
C         33.94937        21.50364        -2.30062
C         35.10806        23.68045        -2.40222
C         33.93297        22.92881        -2.23176
C         35.13131        25.08616        -2.19375
C         33.88572        25.73718        -1.73114
C         35.27541        27.81001        -1.25974
C         33.97232        27.14502        -1.20474
C         35.45839        29.02617        -0.49667
C         34.22168        29.66890         0.26685
C         35.52039        31.81444         0.41154
C         34.29843        31.11360         0.57892
C         35.68320        33.14988         1.09138
C         34.38438        33.88614         1.29661
C         35.48816        36.10328         0.99567
C         34.33844        35.25982         1.46804
C         35.62369        37.43132         1.67165
C         34.36155        38.17809         2.05584
C         35.58445        40.22892         1.32703
C         34.37894        39.48436         1.24278
C         35.64512        41.54800         0.88916
C         34.46728        42.23122         0.50037
C         34.48210        43.64882         0.28943
C         36.28248        25.84974        -2.36532
C         37.62294        27.89770        -1.99022
C         36.37896        27.22860        -1.95263
C         37.71067        29.32332        -1.71513
C         36.49378        29.96721        -0.95183
C         37.82473        31.98535        -0.52081
C         36.64657        31.26709        -0.27707
C         37.83757        33.47840        -0.37126
C         36.76900        34.02542         0.52959
C         38.01595        36.12772         0.66899
C         36.78537        35.35826         0.80738
C         38.00875        37.45554         1.05464
C         36.81403        38.09852         1.55170
C         36.83475        39.57271         1.87829
C         38.96685        30.04835        -1.55179
C         40.25144        32.08392        -1.00435
C         38.99359        31.35146        -1.07224
C         40.34722        33.35958        -0.53132
C         39.18414        34.11192        -0.12737
C         39.22543        35.41679         0.30076
O         32.02681        38.33470        -0.44301
O         31.13788        45.28329         1.83486
O         36.62173        30.07930        -2.37880
O          7.51152        30.89749        -1.69919
O         19.72129        13.32630         1.42769
O         31.77434        42.93047        -1.06590
O         31.24289        22.31337        -3.24310
O         33.44541        26.88944        -2.55354
O         32.87221        26.61512         0.94231
O         20.56424        15.50811        -1.54661
O         29.82255        29.71843         3.03722
O         14.52694        31.15776         2.61480
O         23.52763        11.19112         1.33429
O         14.50315        33.75176         2.43873
O         25.17608        47.18245        -2.26281
O         26.69589        29.68995         3.43982
O         19.33101        48.25556        -3.16819
O         15.69971        18.95105        -0.76813
O         25.56553        32.33527         3.90485
O         30.18237        33.34160         3.44106
O         19.15688        34.66700         3.38613
O         16.75185        43.66072        -2.81918
O         28.75618        35.13594         0.66440
O         18.04453        41.39600         1.22691
O         21.66140        20.64627         2.36397
O         26.40377        26.86969        -1.21748
O         25.81648         7.53660        -0.16641
O         14.72357        43.24561         0.13239
O         35.31279        28.90685         0.93590
O         28.82591        14.38478        -2.55256
O         23.71442        19.65353         1.71547
O         22.50606        47.10443        -2.66266
O         17.84684        28.07906         3.10634
O         30.60221        26.95810         2.16129
O         14.67891        24.95176         2.69564
O         23.80047        38.14364         3.11952
O         13.67205        28.02557        -0.96677
O         19.31152        30.96701         3.63527
O         23.93460        21.70721        -1.47843
O         16.08806        20.26391         2.68982
O         24.15165        34.67953         3.95419
O         24.52942        55.59630         1.19248
O         19.41977        17.83028        -1.05720
O         29.94528        16.51865        -2.77615
O         16.77519        41.23539        -2.10409
O         21.53986        27.27953        -0.59955
H         22.21493        26.78410        -1.14106
O         22.84802        29.45465        -0.02955
H         22.18567        28.86730        -0.48506
O         26.05591        40.63570         2.90934
H         25.38053        41.31331         3.16134
O         23.05523        14.41100         1.54901
H         23.81954        14.78513         2.03446
O         37.44060        33.95494        -1.72248
H         37.57589        34.92743        -1.73867
O         25.15134        10.40031        -2.38759
H         25.73604        10.90414        -2.99440
O         21.96234        29.23363         3.54531
H         21.16233        29.58060         4.00950
O         17.31887        29.58833        -0.20205
H         16.53329        29.74031        -0.77041
O         23.78083        26.07873        -1.47674
H         24.59137        26.55485        -1.78936
O         24.10016         5.48680         0.49149
H         24.99513         5.87393         0.62849
O         20.96291         7.87671        -2.42689
H         20.92932         8.84914        -2.55127
O         36.16129        32.81904         2.45083
H         35.53277        32.17062         2.83601
O         35.13075        36.46550        -0.39774
H         34.98982        35.63096        -0.89533
O         17.71850        19.59884        -0.66952
H         18.19391        19.13378        -1.40647
O         12.76863        33.53131        -1.86256
H         12.09610        33.87051        -2.49133
O         30.02906        29.19617        -0.63943
H         30.37921        30.07920        -0.91229
O         29.07543        24.76792         1.29426
H         29.67968        25.31551         1.87175
O         22.87601        31.66388         4.03957
H         21.94401        31.87121         4.27306
O         17.47539        54.83717        -1.89969
H         17.40381        55.80617        -1.78484
O         32.18357        29.15582         2.35326
H         31.78507        28.24737         2.52169
O         31.80286        39.18870         2.79323
H         32.70197        39.39145         3.16072
O         29.20422        43.77209         2.36845
H         29.98358        44.19448         2.80402
O         28.16602        25.33567        -2.21504
H         27.75427        26.22122        -2.35017
O         22.15160        23.46922        -1.41833
H         22.53797        22.77402        -2.00189
O         28.68280        50.39537         1.34050
H         27.98883        49.97204         1.88830
O          9.93781        42.23794        -0.72517
H         10.23979        42.22419         0.20626
O         28.58247        21.49100        -3.22037
H         29.34183        21.93835        -3.66728
O         22.95922        57.63535         1.44013
H         23.26925        56.87142         1.97956
O         19.40974        50.39894         0.67160
H         20.11901        50.85108         1.17734
O         20.92483        10.21051         1.85849
H         21.74392        10.67221         2.15871
O         21.53526        35.35501         3.96680
H         22.37591        35.00831         4.35968
O         17.10742        17.87776         2.45216
H         16.30682        17.44079         2.80953
O         28.18464        27.74671         2.90244
H         29.11505        27.36586         2.89078
O         19.13760        22.04610        -0.48309
H         19.32545        22.85212        -1.01050
O         26.70616        37.57284        -0.35459
H         27.54572        37.80161        -0.82560
O         34.40295        38.63596         3.44624
H         35.26519        39.11075         3.59544
O         28.77799        44.39362        -1.24122
H         28.80195        43.46428        -1.55270
O         12.31688        24.78246        -1.32735
H         11.65571        25.26393        -1.86942
O         25.35835        48.42215         1.15075
H         25.87559        47.68336         1.54147
O         21.39193        43.47576        -2.62788
H         20.69273        43.78179        -3.24546
O         26.04847        36.47588         4.00636
H         25.66739        35.76837         4.57728
O         19.67294        59.19683        -1.18053
H         19.80340        58.99867        -2.13028
O         24.43986        42.85589         2.37218
H         25.11240        43.55856         2.51224
O         27.88766        46.01562         1.94633
H         28.30578        45.26281         2.43832
O         36.87077        39.77946         3.31038
H         37.61642        39.25874         3.67450
O         28.33182        31.55103         4.26068
H         28.28915        30.60371         4.52320
O         23.11157        26.98908         2.75315
H         22.71347        27.66789         3.35624
O         19.37256        21.29468         3.07075
H         20.30634        21.27532         3.39280
O         31.42886        31.41355        -0.46376
H         31.37089        32.39004        -0.53994
O         22.39351        13.86378        -1.98723
H         21.91683        14.62236        -2.40613
O         29.16308        50.57722        -2.27772
H         29.89593        50.93316        -2.82212
O         29.33221        38.65982        -0.75544
H         30.20642        38.22907        -0.94407
O         17.46757        36.61085         3.16956
H         17.71770        35.91159         3.81898
O          9.49403        28.95969        -2.13442
H          8.68727        29.39769        -2.49120
O         23.61243        54.55169        -2.22673
H         22.90651        54.07422        -2.71271
H          4.80780        31.40064         0.17573
H          5.10597        33.67094        -0.45558
H          7.44202        26.92623         0.59781
H          6.48434        29.21715         1.04370
H          6.27761        35.63728        -0.98495
H          7.53538        37.78701        -1.27607
H          9.72266        22.50296         0.66827
H          8.53032        24.74280         0.50829
H          8.80963        39.91748        -1.45529
H         10.56218        41.64007        -2.58637
H         12.22453        18.20635         0.75497
H         10.99052        20.34665         0.56437
H         11.37147        44.11925        -1.96090
H         12.70628        46.28792        -2.20283
H         14.86932        13.91493         0.43563
H         13.56076        16.00249         0.77175
H         13.94778        48.39363        -2.06999
H         15.17691        50.49868        -1.97088
H         17.48585         9.70673        -0.17856
H         16.17363        11.81416         0.18646
H         16.31877        52.62005        -1.43969
H         17.76398        54.48421         0.13755
H         20.09716         5.54974        -1.03883
H         18.75558         7.76508        -0.75445
H         18.67868        56.99858        -0.80910
H         20.63749        58.96630         0.61938
H         23.31323         2.53212        -2.41436
H         21.36491         3.39812        -1.13343
H         23.34553        62.15097        -2.31375
H         21.16696        61.07724        -1.71763
H         25.12039         4.07352        -3.14809
H         26.07539         6.32150        -3.30414
H         26.71766        59.07994        -0.91964
H         25.49438        61.00447        -1.79269
H         28.22823         8.20045        -2.22719
H         29.26501        10.12679        -1.36860
H         29.25796        54.93466        -0.32324
H         27.98180        57.06547        -0.37525
H         30.36345        12.11614        -0.62936
H         31.73868        14.43683        -0.76486
H         31.75995        50.53550        -0.84621
H         30.50267        52.78906        -0.64408
H         32.84334        16.85425        -1.13720
H         33.80205        18.82849        -1.85677
H         34.25187        46.31262        -0.15143
H         33.00242        48.42645        -0.57844
H         34.92016        20.99870        -2.41740
H         36.03537        23.17012        -2.70257
H         36.59512        42.09960         0.94725
H         35.45045        44.17006         0.30740
H         37.18894        25.36563        -2.75900
H         38.53469        27.34318        -2.25408
H         38.93790        38.04459         1.01108
H         37.74617        40.05410         1.42710
H         39.90840        29.53795        -1.80487
H         41.16075        31.55953        -1.33454
H         41.33177        33.84774        -0.46857
H         40.19038        35.94066         0.38568
