         282
 CSIRO Nanostructure Databank - Neutral Graphene Oxide Data Set
C        -11.10040         0.59218        -0.12115
C         -9.75806         1.27345        -0.20406
C         -8.77073         0.73919         0.87719
C         -7.44134         1.42665         0.59006
C         -6.23877         0.67455         0.38481
C         -5.01809         1.40594        -0.11701
C         -3.73426         0.65009         0.13192
C         -2.49344         1.41644         0.40933
C         -1.19557         0.72063         0.19169
C          0.09316         1.47835        -0.04708
C          1.19147         0.74645         0.75236
C          2.41946         1.52081         1.18098
C          3.71970         0.78297         1.58621
C          4.93887         1.51945         0.97347
C          6.13657         0.74610         0.47805
C          7.44250         1.42735         0.27108
C          8.62996         0.78252         0.15687
C          9.93054         1.59487         0.11333
C         11.13528         0.75438        -0.24737
C         -9.83412         2.78071        -0.08490
C         -8.73176         3.50967         0.22027
C         -7.45027         2.80581         0.38239
C         -6.21156         3.54480         0.27574
C         -4.99236         2.87401         0.22591
C         -3.71102         3.55580         0.26348
C         -2.49428         2.88903         0.37240
C         -1.21445         3.59709         0.39088
C         -0.00183         2.95903         0.23484
C          1.35280         3.66689         0.10831
C          2.46542         3.00075         0.92732
C          3.76158         3.77220         0.93823
C          5.03765         3.01675         1.35738
C          6.32146         3.68395         0.83341
C          7.47569         2.91519         0.29865
C          8.47768         3.59570        -0.64718
C          9.69351         2.75169        -0.82116
C         -8.79535         5.02813         0.18765
C         -7.55891         5.73927         0.77537
C         -6.29149         5.03810         0.25039
C         -4.98364         5.73935         0.17990
C         -3.70925         4.99804         0.11542
C         -2.55826         5.71203        -0.01349
C         -1.29312         5.11681         0.54018
C         -0.03676         5.71339        -0.11913
C          1.18555         5.08951         0.65309
C          2.47179         5.91009         0.72663
C          3.75089         5.13628         0.81949
C          5.02052         5.92859         0.82399
C          6.31039         5.18301         0.68933
C          7.46919         5.84020         0.01581
C          8.76599         5.05951        -0.14950
C         -7.61712         7.23761         0.39029
C         -6.68285         8.11133         0.84489
C         -4.78499         7.09669         0.72890
C         -3.77349         7.88878         0.28748
C         -2.59494         7.18056        -0.27135
C         -1.33185         7.95818        -0.46959
C         -0.01223         7.23234        -0.33210
C          1.22671         8.02711        -0.10702
C          2.44776         7.39982         0.51081
C          3.73361         8.19070         0.43352
C          5.01274         7.41343         0.51145
C          6.25463         8.07516        -0.11416
C          7.39258         7.12025        -0.39717
C         -6.35728         9.51150         0.56521
C         -5.08952        10.02818         0.56928
C         -3.78993         9.33949         0.46709
C         -2.62936        10.05036         0.28879
C         -1.37939         9.49675        -0.38304
C         -0.05436        10.14072        -0.00346
C          1.14182         9.51318        -0.05740
C          2.39428        10.26168        -0.49433
C          3.77572         9.61292        -0.19531
C          4.69305         9.53597        -1.40815
C          5.83714         8.84020        -1.36016
C        -11.17989        -0.72384         0.10421
C         -9.97790        -1.54339         0.43971
C         -8.71911        -0.79856         0.88432
C         -7.40169        -1.47977         0.75373
C         -6.22652        -0.70714         0.40052
C         -5.04197        -1.41347        -0.23394
C         -3.71617        -0.70011         0.00068
C         -2.40216        -1.50387         0.10074
C         -1.24165        -0.64845        -0.45019
C          0.12301        -1.36537        -0.32706
C          1.19525        -0.74492         0.57872
C          2.54127        -1.43422         0.63495
C          3.73107        -0.76198         1.31455
C          5.03318        -1.51002         1.14564
C          6.16598        -0.78809         0.42166
C          7.52157        -1.45753         0.63468
C          8.74756        -0.68652         0.30681
C          9.85731        -1.38490        -0.45861
C         11.13174        -0.57529        -0.41072
C         -9.88429        -2.88181        -0.20031
C         -9.07633        -3.86329         0.26315
C         -7.29665        -2.83885         0.94090
C         -6.08984        -3.63643         0.63971
C         -4.88799        -2.87734         0.17434
C         -3.74341        -3.58196        -0.50169
C         -2.44449        -2.84627        -0.65349
C         -1.11953        -3.57211        -1.13510
C          0.17336        -2.81760        -0.70952
C          1.44301        -3.59191        -0.44400
C          2.66123        -2.81191         0.03094
C          3.97030        -3.61611         0.03645
C          5.08038        -3.04946         0.95474
C          6.39074        -3.64030         0.45023
C          7.54684        -2.92930         0.38799
C          8.83538        -3.57331         0.14842
C          9.95945        -2.84462        -0.11388
C         -8.76524        -5.19220        -0.38974
C         -7.46891        -5.89082         0.07478
C         -6.20077        -5.14449         0.43884
C         -4.93320        -5.84555         0.01917
C         -3.74780        -5.07928        -0.51843
C         -2.43998        -5.80336        -0.60382
C         -1.11752        -5.10058        -0.80065
C          0.13546        -5.86530        -0.49694
C          1.42750        -5.08748        -0.37744
C          2.56775        -5.78767         0.30423
C          3.84882        -5.06804         0.46753
C          5.14677        -5.89368         0.60792
C          6.38466        -5.11006         0.06989
C          7.69241        -5.85878         0.42802
C          8.90123        -5.05750        -0.09602
C         -7.43069        -7.23692        -0.10691
C         -6.20262        -8.08856         0.16628
C         -4.98873        -7.30374        -0.33709
C         -3.69671        -8.03230        -0.44752
C         -2.45043        -7.24366        -0.16183
C         -1.18695        -7.98229         0.15270
C          0.10661        -7.16461         0.33525
C          1.36673        -8.01572         0.11542
C          2.65054        -7.27617         0.17524
C          3.90193        -7.83156        -0.39376
C          5.08603        -7.21270        -0.14399
C          6.36831        -7.87430        -0.40963
C          7.56894        -7.27051        -0.14695
C         -6.13853        -9.46420        -0.47956
C         -4.96968       -10.12353        -0.57954
C         -3.68946        -9.50925        -0.03785
C         -2.35940       -10.11281        -0.43975
C         -1.16187        -9.42864        -0.25535
C          0.08347       -10.01941        -0.62412
C          1.33185        -9.34290        -0.55962
C          2.52902        -9.88494        -1.00946
C          3.80252        -9.08564        -1.22438
C          5.09609        -9.86534        -1.14369
C          6.27151        -9.27239        -0.84181
O         -5.20104         1.38866        -1.63954
O         -4.46979        -7.70921        -1.63387
O          2.28227         6.87090         1.85068
O         -5.84078         5.62822        -1.02230
O         -5.00331        -3.22070         1.57098
O         -2.09740        -7.55368         1.22589
O         -0.39466        -5.88528        -1.83142
O          9.77341        -4.17489        -2.22445
O          5.89755         5.72957         1.99920
O          5.09495         1.28861        -0.45100
O          2.93425        -5.22701         1.59874
O          7.49444         3.36768         1.69810
O          1.80560        -4.41734        -1.60413
O          2.04602         2.49099         2.22168
O          4.39006        10.49907         0.75273
H          5.28885        10.13843         0.96524
O         -5.68796         7.54551         1.68634
O          7.82109         3.77787        -1.92507
H          7.86199         2.93596        -2.42518
O         -5.29419        -5.74713         1.43302
O         -1.45909         5.49244         1.93178
H         -0.95429         4.85434         2.48723
O          8.43213        -1.05859         1.69626
O         -9.61810        -1.41035         1.85625
O          6.76943         9.04654         0.83660
H          6.79420         8.61236         1.71672
O          3.70049        -8.61791        -2.62203
H          3.75277        -9.40506        -3.20449
O         -8.35664        -3.60815         1.45721
O          0.69542        -0.15902         1.79449
O          4.48504        -1.27399         2.46005
O         -1.52090         9.98847        -1.75646
H         -1.98790         9.27214        -2.25279
O          2.18292        -8.04607         1.34288
O          0.91865         7.52143        -1.45088
O          4.39978        -3.57384        -1.33523
H          4.47192        -2.62342        -1.59253
O          3.81729         0.87851         3.00522
H          3.43547         1.74590         3.27908
O         -0.11179         5.17322        -1.45146
H          0.43420         5.74023        -2.04155
O          4.49909         8.14082         1.66967
O         -2.11952         7.51088        -1.62850
O         -1.71110         0.82130         1.53978
O         -3.39059        -2.93026        -1.75862
O          0.54529        -1.75308        -1.65326
O         -3.27429        -5.59284        -1.79065
O          7.91115        -5.94750         1.83967
H          7.06322        -6.26914         2.24319
O          9.47469         5.06132         1.07539
H          8.87835         4.71108         1.77729
O          2.92047        -1.61893        -0.78298
O          2.25809        10.38829        -1.91783
H          1.31911        10.57577        -2.12835
O         -9.23115         1.17191         2.16925
H         -9.66578         0.39411         2.59156
O         -9.92215         5.50525         0.93191
H        -10.67762         4.89839         0.79502
O         -7.57954         5.57967         2.19636
H         -8.50750         5.73368         2.48075
O         -2.11704        -1.85250         1.46170
H         -2.02269        -1.00971         1.97312
O         -5.40419        -1.37271        -1.63988
H         -4.64556        -1.72308        -2.16484
O          4.89957        -3.64614         2.26026
H          4.63598        -2.93631         2.89692
O         -3.94009         1.78868        -2.21972
H         -3.53751         0.92910        -2.50091
O          5.31339        -6.23583         1.99655
H          4.99420        -5.46149         2.52303
O         -3.76384        -9.62219         1.40414
H         -3.10477        -8.99719         1.79101
O          0.86850         4.84337         2.04037
H          1.13788         5.63694         2.55927
O         -6.11513        -8.28947         1.59098
H         -5.90775        -7.42048         2.00828
O          5.86774        -1.12553        -0.97265
H          5.30773        -0.39779        -1.33540
O          0.47776         1.34436        -1.44774
H         -0.24511         0.87710        -1.94050
O          8.95230        -5.21807        -1.59290
H          8.00810        -5.05640        -1.90598
O          1.83627         3.67723        -1.24669
H          1.38081         2.94982        -1.73641
O          0.13664        -6.66017         1.68022
H          0.86054        -7.13303         2.16260
O         -1.51969        -0.41692        -1.85421
H         -1.07082        -1.14871        -2.35734
O          6.37981        -5.21184        -1.39101
H          5.63810        -4.64561        -1.73668
O         -9.87905        -6.07389        -0.21406
H        -10.03508        -6.18432         0.74669
O         -1.12381        -3.47000        -2.55999
H         -1.79187        -4.10072        -2.90820
O          5.08571         3.11703         2.78961
H          5.38251         4.03323         3.00572
O         -9.22952         0.94707        -1.51627
H         -8.38869         1.43809        -1.64090
O          9.41651        -1.38865        -1.85869
H          9.53586        -2.31873        -2.20073
O         10.17589         2.06328         1.46382
H          9.39813         2.57411         1.77598
H         12.07439        -1.09723        -0.63939
H         12.09208         1.29821        -0.27842
H         10.17031         2.75118        -1.81378
H          9.40499         5.56245        -0.91577
H          8.27018         7.57005        -0.88899
H          6.52421         8.83789        -2.22031
H          4.43179        10.11122        -2.30806
H          2.39461        11.28712        -0.02999
H         -0.06256        11.24374        -0.03830
H         -2.67279        11.15037         0.34113
H         -5.01610        11.12252         0.44868
H         -7.19243        10.21427         0.41213
H         -8.41586         7.57338        -0.28688
H         -8.90481         5.34000        -0.89544
H        -10.78531         3.27851        -0.33630
H        -12.00642         1.18082        -0.33334
H        -12.15494        -1.23576         0.10606
H        -10.44988        -3.03327        -1.13048
H         -8.67305        -5.02306        -1.49870
H         -8.36137        -7.73136        -0.43249
H         -7.06977        -9.92321        -0.84642
H         -4.93400       -11.12892        -1.02685
H         -2.31713       -11.16349        -0.76719
H          0.06332       -11.03833        -1.03890
H          2.49868       -10.88455        -1.47390
H          5.08079       -10.92288        -1.45179
H          7.20376        -9.85739        -0.87783
H          8.49587        -7.85379        -0.27128
H          9.85618        -5.48992         0.28217
H         10.92456        -3.35282        -0.25685
