         427
 CSIRO Nanostructure Databank - Neutral Graphene Oxide Data Set
C         28.02078        27.39600        -0.77297
C         27.98099        28.81105        -0.61927
C         26.76637        29.53170        -0.74985
C         27.91515        31.64892        -0.35112
C         26.74176        30.91044        -0.62300
C         27.91387        33.10528        -0.33236
C         26.74043        33.84044        -0.66457
C         27.88845        35.96110        -0.31690
C         26.71779        35.21639        -0.62051
C         27.89240        37.40125        -0.27515
C         26.70579        38.14674        -0.51424
C         27.91316        40.25709        -0.27381
C         26.71405        39.51968        -0.49729
C         27.91080        41.69756        -0.38397
C         26.71929        42.42892        -0.64551
C         27.95576        44.52659        -0.74476
C         26.73297        43.79669        -0.80439
C         27.97848        45.93142        -0.97550
C         30.42127        27.37590        -0.32098
C         29.20425        26.70736        -0.63667
C         30.40779        28.79409        -0.14871
C         29.18112        29.51244        -0.31749
C         30.33894        31.62234         0.15712
C         29.14537        30.93590        -0.16340
C         30.26204        33.07175         0.56605
C         29.08725        33.82065        -0.02329
C         30.30965        35.98023         0.15732
C         29.09475        35.24238        -0.06935
C         30.29723        37.36503         0.26040
C         29.09080        38.11132         0.02869
C         30.35534        40.28288         0.21334
C         29.11020        39.54466         0.00375
C         30.32152        41.71993         0.10130
C         29.14143        42.41362        -0.24803
C         30.39540        44.58089        -0.45731
C         29.16538        43.84213        -0.46743
C         30.40017        45.98647        -0.69258
C         29.16111        46.63681        -0.94665
C         32.90627        24.56894        -0.43268
C         31.72435        25.24620        -0.43555
C         32.82715        27.33826         0.23170
C         31.65856        26.66181        -0.15053
C         32.83286        28.76041         0.37562
C         31.60964        29.49002         0.16997
C         32.76378        31.64264         0.57252
C         31.56741        30.92422         0.29777
C         32.77570        33.07919         0.57319
C         31.57758        33.77137         0.43292
C         32.78306        35.93631         0.64801
C         31.60499        35.20891        -0.00662
C         32.79001        37.41397         0.21213
C         31.52024        38.11121         0.76273
C         32.85403        40.26930         0.81630
C         31.54521        39.58862         0.45370
C         32.83980        41.76812         0.51650
C         31.55619        42.50040         0.26729
C         32.84696        44.59939        -0.19565
C         31.62048        43.90323        -0.19821
C         32.87441        46.01920        -0.41749
C         31.65064        46.71695        -0.64116
C         32.90534        48.80727        -0.70121
C         31.70161        48.12136        -0.79397
C         35.43779        23.13440        -0.44243
C         35.33350        24.49561         0.00500
C         34.13301        25.18069        -0.00132
C         35.34548        27.31587         0.57530
C         34.04677        26.54409         0.65316
C         35.30898        28.74700         0.69941
C         34.04190        29.43798         0.69825
C         35.28481        31.67199         1.03418
C         33.98981        30.89818         0.89252
C         35.29092        33.09891         0.61957
C         34.05748        33.80255         0.55357
C         35.29594        35.92100         0.33786
C         34.08322        35.20478         0.41847
C         35.30870        37.37353         0.31406
C         34.10623        38.11617         0.43692
C         35.32447        40.19964         0.13583
C         34.11492        39.52848         0.37018
C         35.31678        41.64200        -0.20179
C         34.04449        42.42024        -0.06735
C         35.32420        44.54400        -0.13939
C         34.09219        43.89351        -0.06527
C         35.36639        45.97955        -0.23654
C         34.11850        46.72176        -0.38259
C         35.40626        48.89429        -0.24254
C         34.12212        48.13077        -0.50927
C         35.51668        50.27439        -0.84459
C         37.87073        23.12195        -0.11246
C         36.62435        22.46701        -0.43934
C         37.85125        24.46217         0.31288
C         36.53689        25.11185         0.68937
C         37.79847        27.31887         0.66267
C         36.55239        26.62278         0.57645
C         37.77610        28.74287         0.74766
C         36.53751        29.44170         0.79103
C         37.80481        31.59949         0.61665
C         36.59731        30.90465         1.18734
C         37.71918        32.98657         0.02279
C         36.49037        33.77767         0.36886
C         37.76242        35.90287         0.07620
C         36.52157        35.19485         0.23533
C         37.77823        37.32391         0.05704
C         36.55192        38.05763         0.17729
C         37.78776        40.17710        -0.13353
C         36.55863        39.48480         0.04853
C         37.81628        41.62964        -0.54400
C         36.56757        42.39882        -0.22160
C         37.82954        44.50417        -0.17160
C         36.56975        43.78793        -0.18256
C         37.84816        45.91264        -0.21461
C         36.60421        46.62726        -0.29419
C         37.95613        48.78600        -0.59531
C         36.63321        48.07240        -0.58495
C         37.95729        50.26196        -0.52969
C         36.70831        50.91209        -0.89832
C         40.37414        20.40073        -0.81488
C         39.17504        21.05880        -0.69826
C         40.33055        23.11482        -0.01894
C         39.11490        22.42770        -0.29298
C         40.28895        24.47515         0.39134
C         39.06698        25.17147         0.51908
C         40.25535        27.35175         0.84009
C         39.05235        26.61984         0.72574
C         40.25420        28.78224         0.82583
C         39.01829        29.46691         0.80177
C         40.27238        31.67828         0.76248
C         38.98544        30.90774         0.65943
C         40.22595        32.98757         0.01403
C         38.98983        33.78094         0.10548
C         40.26675        35.88175        -0.15882
C         39.00254        35.16151        -0.00644
C         40.25728        37.33954        -0.18624
C         39.01596        38.04157        -0.05920
C         40.25786        40.19871        -0.09665
C         39.01157        39.47199        -0.10912
C         40.27276        41.62885        -0.03048
C         39.06604        42.36022        -0.13994
C         40.29575        44.47352         0.11808
C         39.06313        43.76672        -0.07702
C         40.31260        45.89773         0.15028
C         39.10411        46.62494        -0.11074
C         40.34887        48.74803         0.08530
C         39.16305        48.03508        -0.21064
C         40.34155        50.18940         0.11034
C         39.12707        50.93166        -0.22874
C         40.30008        53.05777         0.10888
C         39.20959        52.38407        -0.29816
C         42.85270        20.39035        -0.68282
C         41.60519        21.06879        -0.54637
C         42.83144        23.10699         0.07575
C         41.58764        22.42713        -0.15225
C         42.82987        24.48273         0.42946
C         41.54980        25.13571         0.75700
C         42.83261        27.34107         0.82356
C         41.54342        26.63292         0.98805
C         42.81952        28.81496         1.12334
C         41.51881        29.51777         0.76263
C         42.77579        31.63852         0.47229
C         41.53487        30.87819         0.56062
C         42.76005        33.00280         0.25633
C         41.52132        33.71672        -0.11708
C         42.73692        35.88374        -0.40838
C         41.46421        35.18581        -0.18970
C         42.73653        37.39305        -0.48146
C         41.45895        38.07232        -0.25987
C         42.72822        40.19059         0.06444
C         41.48687        39.49274        -0.09236
C         42.73352        41.59800         0.22434
C         41.50719        42.32405         0.14692
C         42.73782        44.43985         0.48685
C         41.51298        43.74537         0.24309
C         42.73379        45.85453         0.61265
C         41.53424        46.58895         0.41498
C         42.72568        48.74478         0.73716
C         41.54763        48.03719         0.43806
C         42.73783        50.17401         0.68885
C         41.50310        50.87818         0.45469
C         42.76229        53.03979         0.55649
C         41.44612        52.35485         0.77245
C         44.04040        21.03592        -0.43857
C         45.29314        23.10721         0.22944
C         44.06714        22.41031        -0.05408
C         45.26912        24.49125         0.48113
C         44.03579        25.19489         0.54742
C         45.28661        27.36119         0.54690
C         44.02256        26.64944         0.69584
C         45.26609        28.81162         0.45200
C         44.06283        29.53166         0.65839
C         45.27478        31.64189         0.37002
C         44.05248        30.93513         0.53708
C         45.29619        33.08127         0.31048
C         44.00605        33.77790         0.38102
C         45.26386        35.93634        -0.22398
C         43.99653        35.25241         0.06616
C         45.23161        37.38034        -0.31050
C         44.00491        38.09225        -0.23374
C         45.21746        40.15438         0.24184
C         43.99385        39.47737         0.03791
C         45.21479        41.54259         0.82142
C         43.95298        42.31000         0.49453
C         45.19007        44.36641         1.16554
C         43.94699        43.68377         0.65053
C         45.16473        45.86140         0.97051
C         43.98544        46.54435         0.88451
C         45.23768        48.73164         0.94763
C         43.94803        48.01293         1.24914
C         45.24546        50.23002         1.14543
C         43.94400        50.91286         0.80616
C         43.92439        52.33544         0.66224
C         47.75152        23.08870         0.37037
C         46.56051        22.41751         0.24142
C         47.80494        24.50420         0.52160
C         46.52856        25.21603         0.89592
C         47.73496        27.34406         0.25404
C         46.50526        26.67487         0.50722
C         47.68423        28.75236        -0.27240
C         46.46027        29.50680         0.16114
C         47.72413        31.63069         0.03937
C         46.49339        30.92025         0.19722
C         47.78592        33.09743         0.36351
C         46.47065        33.80722         0.16291
C         47.71558        35.91712        -0.30111
C         46.46784        35.22769        -0.09900
C         47.70794        37.38430        -0.65569
C         46.44276        38.10353        -0.28492
C         47.69709        40.21381         0.06367
C         46.44349        39.48810         0.00324
C         47.70249        41.61334         0.27872
C         46.48039        42.32295         0.52545
C         47.70451        44.44273         0.72450
C         46.48215        43.69970         0.72844
C         47.70232        45.85693         0.93331
C         46.43628        46.58318         1.33527
C         47.67870        48.73247         0.73616
C         46.42376        48.04334         0.93341
C         47.60804        50.13600         0.38811
C         46.46365        50.84622         0.51684
C         50.28558        24.58299         0.43956
C         49.00619        25.23266         0.44968
C         50.21387        27.39808         0.13676
C         48.97342        26.67295         0.30052
C         50.19600        28.83130        -0.04221
C         48.96955        29.51752        -0.09556
C         50.17187        31.66541        -0.35507
C         48.94343        30.93741        -0.13054
C         50.10650        33.09652        -0.60393
C         48.95783        33.78272        -0.29194
C         50.17190        35.92807        -0.51728
C         48.91901        35.22725        -0.40097
C         50.20840        37.32970         0.02334
C         48.94440        38.10570        -0.20890
C         50.19299        40.21159         0.00877
C         48.93762        39.48835        -0.04360
C         50.18398        41.62704         0.13281
C         48.94338        42.33210         0.28715
C         50.18900        44.43197         0.54930
C         48.94422        43.73956         0.49435
C         50.18064        45.86195         0.89451
C         48.89358        46.59043         0.88306
C         50.15389        48.72141         0.61743
C         48.89620        48.02557         0.80172
C         51.45002        25.29583         0.38410
C         52.68419        27.47198         0.23197
C         51.45100        26.72473         0.24681
C         52.65951        28.85140        -0.06556
C         51.42965        29.56160        -0.16533
C         52.61558        31.70380        -0.83216
C         51.38716        30.98244        -0.37355
C         52.52681        33.08216        -1.45670
C         51.19590        33.83841        -1.38355
C         52.58404        35.97347        -0.95582
C         51.33491        35.27081        -0.88705
C         52.61272        37.39315        -0.71267
C         51.43970        38.09577        -0.35605
C         52.63994        40.24886        -0.34827
C         51.42068        39.50962        -0.21677
C         52.63832        41.65952        -0.17511
C         51.41674        42.35364         0.08968
C         52.65568        44.51044         0.18328
C         51.41191        43.76944         0.29944
C         52.69147        45.91821         0.31528
C         51.48233        46.64594         0.76338
C         51.35253        48.09626         0.54466
C         55.06176        27.59276         0.84973
C         53.93300        26.85466         0.60627
C         55.09776        29.00143         0.59297
C         53.94684        29.57628        -0.12843
C         54.97017        31.83701         0.29769
C         53.93286        31.08041        -0.41578
C         54.86939        33.36717        -2.43869
C         53.74867        33.90805        -1.75860
C         54.97966        36.05272        -1.57240
C         53.77377        35.29833        -1.41023
C         55.02401        37.46018        -1.23957
C         53.83585        38.13720        -0.86618
C         55.07366        40.27933        -0.76802
C         53.85281        39.55174        -0.64921
C         55.07849        41.71138        -0.59552
C         53.86720        42.39084        -0.29928
C         55.07208        44.54145        -0.32787
C         53.85998        43.81382        -0.14691
C         55.06618        45.95219        -0.21763
C         53.89665        46.62120         0.08918
C         56.17772        29.80710         0.91734
C         56.09171        31.22329         0.82646
C         56.05892        34.12571        -2.58305
C         56.12109        35.42253        -2.12534
C         56.23211        38.20221        -1.30710
C         56.25778        39.56058        -1.07055
C         56.27834        42.47087        -0.74358
C         56.27611        43.83771        -0.62297
O         54.38066        30.12792        -1.42757
O         32.23068        42.47097         1.63722
O         34.41775        41.87371        -1.38147
O         37.29199        48.33809        -1.85486
O         42.81256        36.54693        -1.70077
O         41.53974        25.69648         2.12922
O         34.46882        31.42052         2.22598
O         52.43891        31.88801        -2.30918
O         51.00499        46.19435         2.07609
O         40.86419        33.02948        -1.29533
O         31.44746        38.02372         2.20814
H         32.02200        38.74479         2.57462
O         43.90948        34.79416         1.46153
O         47.75646        37.40780        -2.13989
H         47.68515        38.34521        -2.42051
O         37.84640        41.58399        -2.02956
H         37.73802        42.50365        -2.35409
O         29.98427        33.04613         2.02760
H         30.80216        32.74342         2.47819
O         41.19229        52.44841         2.22893
H         41.94789        52.01146         2.67745
O         35.46786        49.05328         1.21478
H         34.66421        49.53686         1.49945
O         36.35229        24.83045         2.11841
H         35.52119        25.29540         2.39067
O         45.38027        50.40406         2.62784
H         46.28765        50.11152         2.86521
O         46.43051        46.61206         2.81832
H         45.59184        47.08127         3.06838
O         43.87296        48.02666         2.73071
H         44.10548        48.94908         3.00657
O         54.90955        32.15067        -3.00367
H         54.03787        31.68871        -2.90172
O         42.85779        28.88814         2.59924
H         42.32802        28.13943         2.94986
O         40.33183        32.09874         2.16914
H         40.23196        31.29998         2.72988
O         54.71418        33.14942         0.54677
H         55.44299        33.53718         1.07150
O         36.89113        30.87089         2.62722
H         36.01900        30.79957         3.08413
O         45.20944        41.36665         2.28007
H         45.17915        42.27632         2.67339
O         50.71490        33.93530        -2.75205
H         50.83438        33.04694        -3.15524
O         32.63218        37.50925        -1.24482
H         33.51860        37.42466        -1.65685
O         50.29800        37.15463         1.50183
H         50.28762        38.05290         1.89798
O         47.54135        28.60866        -1.74926
H         48.34982        28.15550        -2.07237
O         33.86673        26.26246         2.10093
H         33.00617        25.80052         2.19874
O         37.56289        32.71706        -1.43522
H         38.46317        32.61062        -1.81589
O         32.97657        40.17940         2.28817
H         32.51378        40.98254         2.63918
O         46.51554        25.21461         2.37570
H         46.48243        24.27726         2.66300
O         32.56543        35.81808         2.07110
H         33.18832        36.41308         2.53695
O         45.15628        44.17644         2.63307
H         45.76571        44.86058         3.01585
O         48.03817        33.16648         1.82143
H         48.88211        32.69760         1.99455
O         31.80427        35.08003        -1.44542
H         31.85621        35.99987        -1.80689
H         27.09078        26.85674        -1.00348
H         25.83853        28.98227        -0.96429
H         25.78019        31.42691        -0.74193
H         25.81564        33.31137        -0.92939
H         25.77359        35.73186        -0.84034
H         25.75936        37.62951        -0.71850
H         25.77181        40.04747        -0.69099
H         25.75701        41.90650        -0.72124
H         25.79753        44.33872        -1.00411
H         27.03213        46.45073        -1.18480
H         29.19064        25.61706        -0.76205
H         29.13592        47.71889        -1.13211
H         32.90933        23.52132        -0.76149
H         30.81909        24.71437        -0.75321
H         32.89358        49.90297        -0.78694
H         30.78203        48.69711        -0.96135
H         34.54118        22.60628        -0.79369
H         34.60704        50.81359        -1.14677
H         36.63405        21.42085        -0.77035
H         36.73583        51.95730        -1.24122
H         40.39752        19.34500        -1.12154
H         38.25160        20.50574        -0.91277
H         40.34056        54.15470         0.03166
H         38.36157        52.93623        -0.72794
H         42.85120        19.33474        -0.99091
H         42.78178        54.13648         0.47556
H         44.98069        20.48171        -0.55900
H         44.87647        52.88410         0.64252
H         48.68496        22.51525         0.27992
H         46.58405        21.32961         0.09710
H         48.49625        50.63672        -0.02195
H         46.45749        51.90522         0.22571
H         50.33856        23.49004         0.53356
H         50.13220        49.81116         0.48260
H         52.40294        24.75194         0.41848
H         52.24857        48.68874         0.31275
H         55.96302        27.10667         1.25110
H         53.95799        25.77772         0.81621
H         56.00257        46.50951        -0.36172
H         53.92139        47.71388         0.19529
H         57.07146        29.35988         1.37496
H         56.86537        31.84127         1.30369
H         56.92271        33.65970        -3.07396
H         57.05702        35.98046        -2.25397
H         57.17876        37.70155        -1.54746
H         57.22104        40.08265        -1.13726
H         57.22468        41.96315        -0.97080
H         57.20722        44.40781        -0.75321
