         276
 CSIRO Nanostructure Databank - Neutral Graphene Oxide Data Set
C        -10.76270         0.43276        -0.89245
C        -10.17769         1.32423         0.18104
C         -8.90267         0.60864         0.73630
C         -7.64179         1.30975         0.27815
C         -6.35910         0.57176         0.62203
C         -5.11525         1.25135         0.09950
C         -3.84660         0.45354        -0.00082
C         -2.55425         1.17844        -0.42682
C         -1.25790         0.47050         0.04800
C          0.02097         1.25431        -0.08900
C          1.21793         0.86443         0.74861
C          2.53115         1.59334         0.55498
C          3.83472         0.88172         0.84152
C          5.06692         1.32615         0.08958
C          6.37469         0.66934         0.46426
C          7.67118         1.39589         0.18810
C          8.90464         0.73062         0.68001
C         10.37042         1.72530        -0.82988
C         10.89862         0.68105        -1.70791
C         -9.79233         2.71374        -0.25818
C         -8.92778         3.51206         0.67631
C         -7.57945         2.75631         0.78081
C         -6.28617         3.48294         0.71331
C         -5.06472         2.73495         0.24186
C         -3.72719         3.38731         0.41634
C         -2.49066         2.61783         0.09741
C         -1.32316         3.39463        -0.46902
C         -0.03627         2.61507        -0.81549
C          1.19199         3.51902        -0.62406
C          2.48599         2.92976        -0.16163
C          3.70827         3.35562        -0.97429
C          5.05686         2.70749        -0.57376
C          6.34903         3.48395        -0.62985
C          7.67961         2.79695        -0.34094
C          8.96635         3.69059        -0.29432
C         10.00024         2.99116        -1.18027
C         -8.74621         4.99596         0.36199
C         -7.57493         5.67525         0.32081
C         -6.28385         4.93273         0.32877
C         -4.96067         5.63471         0.23574
C         -3.67880         4.89981         0.53430
C         -2.39137         5.62972         0.28997
C         -1.29526         4.89227        -0.43910
C         -0.08355         5.66457        -0.94262
C          1.15958         4.84293        -1.42023
C          2.51165         5.63331        -1.30989
C          3.80951         4.88496        -1.17682
C          5.07416         5.69572        -0.84188
C          6.42616         4.99900        -0.73712
C          7.43163         5.64154         0.18617
C          8.54225         5.10998        -0.69923
C         -7.56849         7.20788         0.17256
C         -6.20990         7.89969         0.01850
C         -4.92388         7.14084         0.12489
C         -3.66117         7.86583         0.51026
C         -2.35676         7.13583         0.33207
C         -1.14021         7.89746        -0.08222
C         -0.05355         7.15792        -0.81575
C          1.28753         7.90238        -0.98458
C          2.42462         6.95375        -0.55880
C          3.54253         7.47783         0.28672
C          4.93053         7.02464        -0.12185
C          6.16173         7.78078         0.41709
C          7.32706         6.86415         0.74568
C         -6.14287         9.37962         0.21330
C         -4.97162        10.04640         0.23508
C         -3.65706         9.36337         0.40797
C         -2.38869        10.03618         0.01467
C         -1.23684         9.37483        -0.26190
C          0.05928        10.08980        -0.64102
C          1.26409         9.23785        -0.24348
C          2.27919         9.68594         0.51395
C          3.34141         8.77527         1.10584
C          4.63288         9.43677         1.51376
C          5.83715         8.86545         1.40907
C        -10.78041        -0.89822        -0.73394
C        -10.24680        -1.57158         0.54312
C         -8.93294        -0.86859         0.94403
C         -7.65198        -1.70590         1.12504
C         -6.37471        -0.85709         1.06826
C         -5.08933        -1.63236         1.05789
C         -3.84538        -0.90412         0.61645
C         -2.53571        -1.54162         0.95320
C         -1.32889        -0.62349         1.11418
C         -0.01772        -1.41826         1.11431
C          1.22909        -0.57143         1.19351
C          2.53334        -1.30622         1.38427
C          3.83778        -0.55099         1.35457
C          5.15023        -1.35198         1.45410
C          6.44531        -0.59910         1.29709
C          7.73254        -1.38807         1.19860
C          8.94407        -0.60391         0.85924
C         10.17542        -1.57754        -0.63658
C         10.77710        -0.67926        -1.63622
C        -10.06174        -3.04353         0.30423
C         -8.85443        -3.67658         0.10211
C         -7.53624        -2.92786         0.19132
C         -6.35070        -3.88454         0.55437
C         -5.04914        -3.10116         0.73847
C         -3.77295        -3.56466         0.03505
C         -2.48025        -2.97972         0.55845
C         -1.17174        -3.47606         0.04294
C          0.05448        -2.84617         0.66603
C          1.39353        -3.36888         0.21064
C          2.61855        -2.68222         0.75246
C          3.91078        -3.47300         0.82596
C          5.16316        -2.86949         1.44064
C          6.47697        -3.66701         1.35763
C          7.74679        -2.90155         1.05961
C          8.86709        -3.56621         0.19408
C          9.44489        -2.68888        -0.91766
C         -8.79106        -5.05536        -0.22931
C         -7.55912        -5.68801        -0.55383
C         -6.35595        -4.76817        -0.69759
C         -5.06084        -5.50358        -1.08540
C         -3.75020        -4.75386        -0.88342
C         -2.40711        -5.41869        -1.36159
C         -1.11707        -4.73516        -0.77278
C          0.18721        -5.51091        -0.67858
C          1.43753        -4.83164        -0.19427
C          2.49135        -5.63689         0.53219
C          3.82499        -4.95130         0.65177
C          4.96301        -5.70511         1.28001
C          6.38316        -5.14944         1.02022
C          7.34239        -5.62964        -0.03511
C          8.46387        -4.93875        -0.34900
C         -7.48169        -7.05747        -0.62142
C         -6.25040        -7.85959        -0.93754
C         -5.02823        -6.99595        -1.26938
C         -3.69550        -7.73196        -1.27871
C         -2.41047        -6.95717        -1.24180
C         -1.22303        -7.67649        -0.65791
C          0.05721        -6.97896        -0.36976
C          1.38979        -7.73087        -0.36393
C          2.37430        -7.12972         0.65916
C          3.60362        -7.96224         0.96823
C          4.90671        -7.22453         1.04000
C          6.07957        -7.78890         0.25204
C          7.35257        -6.99922         0.62413
C         -5.89664        -8.80983         0.19549
C         -4.71333        -9.43704         0.22216
C         -3.74554        -9.22997        -0.91869
C         -2.36968        -9.84797        -0.76645
C         -1.21213        -9.16055        -0.79448
C          0.12661        -9.81683        -1.09950
C          1.29020        -9.25077        -0.31642
C          2.38107        -9.99096        -0.04009
C          3.58309        -9.48701         0.72509
C          4.93780       -10.00748         0.26554
C          6.07895        -9.29720         0.23837
O          7.49475        -3.47401         2.37709
O         -2.89629        -7.56018        -2.47765
O          2.56835         6.51155         0.83225
O          7.26225        -0.75926         2.47112
O         -2.81955         5.24149         1.64427
O          3.13145        -0.84707         2.60389
O          3.29837         1.82147         1.79396
O         -6.64597        -3.80102        -1.78179
O          4.33988        -7.81861         2.23449
O          0.00476        -2.52110         2.07962
O         -0.33311         0.15968        -1.01007
O         -5.57523         5.04612        -0.95431
O         -5.30822         2.11459        -1.06664
O         10.15316         1.36782         0.52279
O         -9.03981         0.08569         2.06539
O          1.72312         3.83940         0.69410
O          4.21073        -4.11448        -0.46267
O          5.81870         2.82519        -1.81375
O         -7.13428        -2.53370        -1.15099
O         -5.20356        -6.11675        -2.40707
O         -6.30688         0.23685         2.03902
O         -4.00182        -0.72456        -0.83941
O          1.50117         8.19710        -2.32507
O         10.20971        -1.21623         0.74162
O         -6.84835         3.06213         1.99491
O          1.23695        -5.13976        -1.60129
O          3.31972         5.38666        -2.46652
O          7.52853         5.12074        -1.79396
O         -2.53274        -2.60012         1.95032
O         -0.88576        -7.22865         0.71619
O          5.04819         6.93198        -1.58303
O          5.07101        -2.15640         2.67352
O          1.91082        -6.27084         1.72558
O         -4.92913        -2.61680         2.10555
O         -1.00570        -3.42607        -1.40528
O         -1.83077         4.16118        -1.60210
O          7.12586        -6.22452         1.88694
O          5.63209         0.29581        -0.75738
O         -3.86745        -3.39652        -1.41077
O          7.82701         1.66274        -1.24363
O          2.15968        -2.47873        -0.63922
O         -0.53188         6.54446        -2.03720
O         -3.67642         8.66012         1.72203
O         -1.32472         7.51602         1.31137
O         -2.90355         2.76211         1.46877
O          0.99531         0.52344         2.13339
O          1.96634        -7.55903        -1.64250
O         -5.45473         7.54306        -1.18274
O         -2.59589         1.21350        -1.84624
H         -1.67443         1.32844        -2.19662
O          3.37214         2.76300        -2.24453
H          4.14615         2.87632        -2.84272
O         -6.59309        -4.67790         1.70442
H         -6.58457        -4.07106         2.48154
O          4.77423        -5.45679         2.68626
H          5.49026        -5.92580         3.16951
O         -1.51578         0.03206         2.37556
H         -1.33230        -0.61854         3.08727
O         -2.33887        -5.16490        -2.76126
H         -2.34988        -4.18984        -2.88622
O          0.09778        11.38229        -0.05763
H         -0.02305        11.29292         0.90989
O          9.42128         3.83213         1.05689
H          9.93159         3.02000         1.29164
O         -7.72804        -2.26617         2.44998
H         -7.87837        -1.51555         3.06797
O         -9.51234         3.44712         2.00772
H         -8.77316         3.52192         2.65468
O        -11.14491         1.40292         1.25704
H        -10.78892         2.05533         1.91032
O          5.81976        -7.38987        -1.12941
H          5.03878        -7.87717        -1.47005
O          0.41686        -9.56395        -2.48128
H          1.00567        -8.75494        -2.51545
O         -7.83142         1.40084        -1.14714
H         -7.00095         1.77371        -1.54828
O         -8.17706         7.78200         1.33026
H         -9.06478         7.38968         1.45658
O          0.95116         4.57411        -2.80627
H          0.69218         5.42441        -3.23194
O         -0.08792         2.26855        -2.20632
H          0.04294         3.09466        -2.74299
O          3.39582       -10.12782         2.02094
H          3.88767        -9.58290         2.67932
O          6.73389         8.54238        -0.68635
H          6.53938         8.03903        -1.51402
O         -6.60380        -8.61563        -2.11752
H         -6.42875        -8.04366        -2.89581
O          9.94296        -3.87780         1.10190
H          9.53526        -4.16242         1.94967
O         -4.29912        -9.89354        -2.07864
H         -3.78287        -9.58268        -2.85447
O          2.78194         8.41864         2.40289
H          2.20333         7.63076         2.27189
O        -11.23077        -1.40423         1.56941
H        -11.34277        -0.42940         1.70842
H         11.11566        -1.21787        -2.53832
H         11.31524         1.06623        -2.65378
H         10.12176         3.33502        -2.21756
H          9.39749         5.79184        -0.90716
H          8.24346         7.36691         1.09405
H          6.71014         9.36200         1.86021
H          4.51288        10.32514         2.15308
H          2.21497        10.69926         0.94380
H          0.09436        10.21668        -1.75624
H         -2.40939        11.13197        -0.09927
H         -4.97287        11.14691         0.26637
H         -7.09281         9.93371         0.20709
H         -8.19133         7.46347        -0.73501
H         -9.68684         5.56968         0.30907
H         -9.99158         3.06524        -1.28153
H        -11.19104         0.89409        -1.79536
H        -11.24048        -1.53746        -1.50226
H        -10.98510        -3.64046         0.23523
H         -9.71377        -5.65557        -0.20812
H         -8.40919        -7.63931        -0.49669
H         -6.63616        -8.96775         0.99476
H         -4.45936       -10.12878         1.03872
H         -2.34223       -10.94516        -0.86728
H          0.05099       -10.92497        -0.94375
H          2.32583       -11.08632        -0.15107
H          4.99612       -11.10167         0.14995
H          7.02928        -9.80534         0.00816
H          8.30025        -7.58197         0.64286
H          9.30658        -5.50117        -0.78381
H          9.33315        -3.02948        -1.95711
