         404
 CSIRO Nanostructure Databank - Neutral Graphene Oxide Data Set
C          2.04481         2.27588         3.77311
C          1.97776         3.66571         3.60707
C          3.13907         1.55404         3.31477
C          3.01349         4.37528         2.96958
C          1.82600         6.57064         3.14413
C          1.74416         7.92259         2.87206
C          2.94987         5.80599         2.74643
C          2.77505         8.60309         2.17641
C          1.50069        10.74360         2.09828
C          1.43042        12.12536         1.86338
C          2.62811         9.98449         1.78528
C          2.46899        12.86165         1.27676
C          1.46634        15.05201         1.95760
C          1.50444        16.44002         2.03760
C          2.49482        14.29395         1.35040
C          2.68580        17.15712         1.70127
C          2.79732        18.59442         1.85564
C          4.21438         2.21162         2.66707
C          4.15015         3.64557         2.48543
C          5.36000         1.48813         2.26176
C          5.21771         4.32575         1.86521
C          4.03205         6.47876         2.10610
C          3.95167         7.87875         1.82073
C          5.19311         5.73282         1.71453
C          5.06208         8.55299         1.19688
C          3.65545        10.59589         0.92455
C          3.54857        12.10213         0.60322
C          4.97008         9.92388         0.81115
C          4.78583        12.80110         0.07913
C          3.63265        15.04439         0.80045
C          3.78735        16.43870         1.22426
C          4.85678        14.29772         0.20751
C          5.09187        17.08416         1.16186
C          3.94204        19.26223         1.52891
C          5.14527        18.55999         1.14336
C          6.45776         2.11550         1.64031
C          6.30166         3.54173         1.16476
C          7.62968         1.42777         1.32868
C          7.61169         4.28123         1.08904
C          6.33473         6.42374         1.18621
C          6.26875         7.82857         0.94591
C          7.56311         5.72008         0.97796
C          7.39600         8.50946         0.39481
C          6.09929        10.60516         0.31595
C          6.06879        12.02838        -0.11128
C          7.32463         9.91399         0.14826
C          7.36483        12.74804        -0.29111
C          6.16542        14.91709         0.21574
C          6.31062        16.29501         0.65513
C          7.29909        14.24281        -0.52725
C          7.49228        17.06677         0.25024
C          6.32048        19.19550         0.82224
C          7.50978        18.47777         0.41652
C          8.79736         2.11356         0.85734
C          8.77573         3.57126         0.87472
C          9.96036         1.43696         0.50756
C         10.05549         4.26950         0.70061
C          8.70039         6.43303         0.54221
C          8.60551         7.78690         0.15091
C         10.01470         5.79427         0.48569
C          9.69745         8.40793        -0.54706
C          8.44508        10.57436        -0.46331
C          8.53225        12.04560        -0.55743
C          9.40566         9.72723        -1.00887
C          9.81066        12.77198        -0.69078
C          8.62770        14.93627        -0.33799
C          8.65947        16.35000        -0.13945
C          9.83030        14.20518        -0.48504
C          9.89058        17.06707        -0.23526
C          8.69970        19.18405         0.16208
C          9.90499        18.49783        -0.12225
C         11.17966         2.11610         0.14266
C         11.21512         3.54061         0.18924
C         12.34992         1.41250        -0.19168
C         12.38864         4.26480        -0.14330
C         11.12526         6.43923        -0.23830
C         10.96686         7.75952        -0.72355
C         12.33996         5.70008        -0.36733
C         12.17056         8.44524        -1.41307
C         11.24832        10.77505        -1.28569
C         11.08967        12.13645        -0.81461
C         12.29023         9.92986        -1.06730
C         12.29926        12.80582        -0.52459
C         11.08242        14.92337        -0.44517
C         11.11021        16.35096        -0.38187
C         12.32926        14.22890        -0.43548
C         12.34622        17.06521        -0.42964
C         11.12775        19.19438        -0.26323
C         12.34758        18.50190        -0.41903
C         13.57698         2.09951        -0.40267
C         13.57989         3.52587        -0.36419
C         14.80114         1.39852        -0.59217
C         14.86104         4.22647        -0.45234
C         13.51873         6.39408        -0.78185
C         13.48144         7.74677        -1.10552
C         14.83229         5.72965        -0.66083
C         14.72212         8.45998        -1.22230
C         13.55124        10.53202        -0.59324
C         13.53780        12.01923        -0.35532
C         14.79352         9.85004        -1.02792
C         14.85245        12.74167        -0.40188
C         13.55907        14.94619        -0.40646
C         13.58772        16.36057        -0.47368
C         14.84750        14.24062        -0.40267
C         14.82859        17.07417        -0.59141
C         13.57912        19.19107        -0.54787
C         14.80255        18.49964        -0.66304
C         16.06019         2.04255        -0.74199
C         16.09487         3.49643        -0.78617
C         17.23990         1.30055        -0.92498
C         17.23830         4.19509        -1.14520
C         16.01078         6.37141        -1.27300
C         15.94050         7.73707        -1.48908
C         17.23911         5.62531        -1.43937
C         17.11198         8.49387        -1.96064
C         16.00695        10.56867        -1.21829
C         15.98589        12.03908        -1.09136
C         17.17250         9.93847        -1.68808
C         17.28364        12.78239        -1.23092
C         16.07602        14.98857        -0.73321
C         16.09612        16.38798        -0.70788
C         17.32185        14.20830        -0.74171
C         17.33290        17.13998        -0.97518
C         16.02019        19.21369        -0.84315
C         17.28741        18.61907        -0.98617
C         18.54436         1.92917        -0.90138
C         18.53007         3.49976        -1.08047
C         19.79576         1.27007        -1.24176
C         19.72747         4.08718        -1.72648
C         18.41354         6.28964        -1.79015
C         18.42074         7.71871        -2.11949
C         19.68354         5.57455        -2.02399
C         19.69504         8.47374        -2.11326
C         18.43355        10.62774        -1.82368
C         18.50361        11.98919        -1.49045
C         19.65557         9.85807        -2.10689
C         19.78651        12.70095        -1.48819
C         18.60137        14.99270        -0.95991
C         18.48754        16.42268        -1.28350
C         19.82567        14.20948        -1.34809
C         19.58139        16.95045        -2.15139
C         18.34504        19.57774        -1.12449
C         19.77876        19.56573        -1.23832
C         21.00530         1.98920        -1.34179
C         21.02095         3.41471        -1.55492
C         22.25410         1.32354        -1.30641
C         22.21685         4.12110        -1.77611
C         20.96212         6.30324        -2.01784
C         20.96111         7.73589        -2.10822
C         22.17259         5.57528        -1.94142
C         22.18368         8.43282        -2.16112
C         20.89990        10.60282        -2.44453
C         20.93966        12.07150        -2.19322
C         22.21565         9.85602        -2.67559
C         22.23159        12.78739        -2.08390
C         20.98541        14.92320        -1.89357
C         20.93060        16.31567        -1.98238
C         22.23181        14.20185        -1.99542
C         22.11660        17.08155        -1.86257
C         20.67136        18.64434        -0.70899
C         22.03968        18.35834        -1.22113
C         23.48980         1.97165        -1.50414
C         23.48011         3.41632        -1.79353
C         24.63264         1.15587        -1.21804
C         24.65565         4.20928        -1.90451
C         23.39659         6.31589        -1.86651
C         23.41456         7.75185        -1.95694
C         24.61172         5.61776        -1.75054
C         24.64588         8.48007        -1.85577
C         23.44649        10.61914        -2.20325
C         23.44230        12.07325        -2.13137
C         24.61120         9.91408        -1.94263
C         24.65413        12.80971        -2.05794
C         23.44482        14.92077        -2.02155
C         23.40446        16.39534        -2.03801
C         24.67575        14.22015        -1.99622
C         24.64835        17.15024        -1.69612
C         23.20336        19.05781        -0.89305
C         24.52061        18.52270        -1.12257
C         25.95398         1.44588        -1.64562
C         25.96574         3.61951        -2.09729
C         27.19467         1.11309        -1.16043
C         27.14921         4.17064        -1.69731
C         25.83710         6.35266        -1.39406
C         25.88898         7.81265        -1.57194
C         27.14817         5.59281        -1.28328
C         27.12495         8.46599        -1.43294
C         25.85477        10.66040        -1.64101
C         25.92321        12.07678        -2.10089
C         27.14491         9.94365        -1.38878
C         27.22323        12.82562        -1.97414
C         25.92475        14.92353        -1.75219
C         25.82099        16.32774        -1.19743
C         27.14644        14.27591        -1.70279
C         27.10065        17.10557        -1.36681
C         25.68290        19.16293        -0.73905
C         27.01650        18.59379        -1.03300
C         28.42284         1.85553        -1.68822
C         28.35514         3.36066        -1.25268
C         29.68823         1.25609        -1.12901
C         29.66401         4.09841        -1.52737
C         28.39628         6.35109        -1.39746
C         28.38380         7.74927        -1.35732
C         29.66729         5.62198        -1.53914
C         29.64744         8.45761        -1.36893
C         28.41648        10.68649        -1.56135
C         28.45493        12.07133        -1.62323
C         29.65345         9.90850        -1.62762
C         29.67319        12.81710        -1.40526
C         28.38190        14.96526        -1.34310
C         28.36164        16.36796        -1.16088
C         29.61767        14.25467        -1.24429
C         29.54068        17.09335        -0.89443
C         28.25538        19.20267        -0.55408
C         29.47408        18.52675        -0.58925
C         30.81039         1.98730        -0.79334
C         30.86626         3.43870        -0.99325
C         31.98012         1.30881        -0.32091
C         31.97130         4.18100        -0.62219
C         30.89877         6.34214        -1.16309
C         30.87510         7.78015        -1.18902
C         32.03961         5.62836        -0.76693
C         32.12988         8.49012        -1.01878
C         30.96818        10.68927        -1.44725
C         30.88871        12.13756        -1.20263
C         32.16689         9.94271        -1.02877
C         32.07250        12.83353        -0.80898
C         30.82077        14.97939        -0.97918
C         30.76488        16.39235        -0.84180
C         32.06641        14.26365        -0.75631
C         32.00418        17.17357        -0.71463
C         30.67080        19.20122        -0.20861
C         31.92728        18.57299        -0.24015
C         33.11429         2.00985         0.09643
C         33.04382         3.48979         0.12298
C         34.28233         1.36425         0.53682
C         34.29249         4.25790         0.46421
C         33.26497         6.34996        -0.48566
C         33.30094         7.76369        -0.72516
C         34.40517         5.66646         0.03493
C         34.60196         8.47837        -0.64691
C         33.29645        10.66821        -0.67983
C         33.27526        12.10667        -0.54692
C         34.65494        10.01185        -0.73285
C         34.43769        12.79993        -0.10084
C         33.26537        14.94032        -0.42962
C         33.30485        16.41367        -0.50304
C         34.43247        14.22194        -0.03192
C         34.42187        17.14281         0.09560
C         33.09849        19.21928         0.17496
C         34.33825        18.52642         0.35785
C         35.47293         2.07371         0.87065
C         35.51614         3.49940         0.76679
C         36.65012         1.38194         1.24306
C         36.70918         4.20118         1.00286
C         35.62346         6.31467         0.30883
C         35.77453         7.73179        -0.06188
C         36.74623         5.63552         0.85277
C         36.85016         8.47069         0.62433
C         35.62482        10.67511         0.23092
C         35.60441        12.06073         0.35873
C         36.65865         9.88825         0.89269
C         36.74522        12.78737         0.90173
C         35.61760        14.92284         0.40258
C         35.65611        16.39362         0.32258
C         36.73961        14.23439         0.89708
C         36.80503        17.14130         1.01770
C         35.41986        19.20277         1.00930
C         36.57115        18.53588         1.44045
C         37.84491         2.07033         1.51847
C         37.88338         3.49658         1.40213
C         39.03751         1.38042         1.91426
C         39.07540         4.21265         1.70496
C         37.94145         6.34430         1.19055
C         37.93280         7.79038         1.17593
C         39.09495         5.64698         1.62741
C         39.11397         8.51463         1.62117
C         37.89835        10.65919         1.46227
C         37.90445        12.11538         1.30490
C         39.13590         9.91202         1.59787
C         39.07615        12.81076         1.77119
C         37.84733        14.93740         1.51592
C         37.81742        16.33812         1.70549
C         38.98401        14.21366         2.00763
C         38.78040        17.00588         2.51016
C         37.52259        19.13449         2.29086
C         38.63616        18.41352         2.78534
C         40.19005         2.07228         2.19478
C         40.23499         3.49718         2.10840
C         41.41891         4.22470         2.42446
C         40.29084         6.36063         1.99431
C         40.30046         7.77933         1.98087
C         41.44316         5.59766         2.37324
C         41.46450         8.54501         2.37136
C         40.43553        10.68222         1.58032
C         40.26711        12.10745         2.08095
C         41.53507         9.89059         2.23441
C         41.31078        12.79833         2.70874
C         40.03800        14.88264         2.69880
C         39.90286        16.29208         3.02564
C         41.18345        14.14332         3.05133
C         40.84519        16.98142         3.81234
C         39.60690        19.05565         3.59591
C         40.68926        18.34444         4.09639
O         19.34413        17.67883        -3.11049
O          5.15105        12.32564        -1.25538
O         15.14679        13.41263         0.84825
O         26.71805        12.37424        -3.29157
O         30.49450        10.28428        -2.77147
O         36.79831        16.93675        -0.43024
O          3.84348        14.93533        -0.66828
O         20.22700        13.30997        -0.23930
O         35.64181         7.91172        -1.53345
O         15.08153         5.17235         0.66856
O         10.40426         5.20653         1.77232
O         33.22282         4.04947         1.47330
O         24.29845        16.98797        -3.08353
O         13.51589        11.05664         0.77675
O         17.58432         8.07584        -3.28022
O         27.11800        18.06989        -2.43037
O          6.03689        16.46373         2.11821
O         19.52376         4.56483        -3.09547
O          3.08145        11.09679        -0.33144
O         10.18178        10.26128        -2.04069
O         26.36862         5.90913        -0.07032
O         18.76617         2.90978         0.19776
O         18.16976        14.58328         0.37664
O         32.92664        16.95979        -1.82724
O         20.63453        11.57444        -3.53938
O         29.77725         4.79970        -2.78548
O         16.32789        12.70311        -2.36158
O         26.33188        10.49351        -0.26109
O         36.81113        10.19532         2.32004
O         25.96449         2.37172        -2.72581
O         25.59339        16.17727         0.24015
H         26.25614        15.54785         0.59499
O          6.95227        14.39669        -1.95484
H          6.16723        13.81401        -2.11117
O         28.51449         1.75399        -3.11809
H         27.62854         1.98197        -3.48606
O         22.37665         9.71318        -4.11861
H         21.93426        10.49318        -4.52864
O          5.83886         3.43319        -0.23421
H          4.98986         2.94195        -0.22134
O         40.81504        10.82974         0.16186
H         40.98581         9.93060        -0.19090
O         20.31080        20.61295        -1.93303
H         19.60047        21.12367        -2.36779
O         28.22689         3.31046         0.19828
H         27.83463         4.15256         0.51653
O         11.97236         8.31072        -2.84882
H         11.19658         8.87281        -3.07927
O         35.14933        10.35143        -2.06479
H         35.65098         9.56543        -2.38844
H          1.21825         1.75414         4.27542
H          1.09292         4.19460         3.98510
H          3.18423         0.46493         3.45716
H          0.98765         6.08965         3.66506
H          0.84194         8.46472         3.18381
H          0.66306        10.28470         2.64007
H          0.55016        12.65256         2.25399
H          0.57127        14.54105         2.33712
H          0.64466        16.98445         2.45233
H          1.91048        19.15114         2.19133
H          5.42172         0.41578         2.50299
H          3.97962        20.35973         1.59328
H          7.69499         0.34693         1.52757
H          6.37241        20.29412         0.86269
H          9.96295         0.33670         0.51662
H          8.71299        20.27947         0.26055
H         12.33661         0.31303        -0.21478
H         11.13184        20.29326        -0.21315
H         14.77799         0.29847        -0.58177
H         13.57854        20.29079        -0.57268
H         17.17616         0.22339        -1.13715
H         15.95586        20.31278        -0.85444
H         19.81456         0.17378        -1.32628
H         17.94195        20.59020        -1.31818
H         22.26008         0.24560        -1.08727
H         20.25215        17.85753        -0.06057
H         24.45252         0.23303        -0.64568
H         23.12330        20.01134        -0.34982
H         27.29568         0.43461        -0.30193
H         25.63596        20.14904        -0.25131
H         29.72585         0.16080        -1.01868
H         28.22385        20.23071        -0.16267
H         31.97597         0.20918        -0.28279
H         30.60758        20.25529         0.10035
H         34.29921         0.26457         0.57072
H         33.04266        20.27492         0.47955
H         36.62637         0.28508         1.32265
H         35.28112        20.25830         1.28692
H         39.01415         0.28399         1.99398
H         37.39626        20.18836         2.58082
H         41.09832         1.53318         2.50138
H         42.32025         3.67050         2.72408
H         42.37533         6.11595         2.63400
H         42.33254         8.01631         2.78947
H         42.47167        10.40122         2.49907
H         42.25001        12.28485         2.95364
H         42.01842        14.63308         3.56987
H         41.71732        16.45425         4.22167
H         39.49594        20.12651         3.81824
H         41.43699        18.85402         4.71997
