         200
 CSIRO Nanostructure Databank - Neutral Graphene Oxide Data Set
C        -11.09079         0.74127        -0.46543
C         -9.86572         1.50762        -0.27620
C         -8.62897         0.76011        -0.16676
C         -7.39226         1.49208        -0.17515
C         -6.10531         0.76661        -0.30477
C         -4.85548         1.47099         0.09403
C         -3.71542         0.76053         0.38670
C         -2.45347         1.43437         0.74331
C         -1.17046         0.71180         0.56096
C          0.03283         1.43618         0.42871
C          1.25636         0.72262         0.22804
C          2.48902         1.43671         0.12164
C          3.70429         0.72948        -0.08356
C          4.91483         1.45376        -0.25210
C          6.13410         0.71311        -0.59845
C          7.45933         1.46947        -0.57509
C          8.69031         0.70311        -0.34571
C          9.90126         1.42175        -0.14258
C         11.12346         0.67202        -0.03228
C         -9.86360         2.88424        -0.22300
C         -8.62622         3.64980         0.16864
C         -7.37647         2.87155        -0.14943
C         -6.09984         3.58043        -0.37314
C         -4.84172         2.90787         0.00899
C         -3.67627         3.63569         0.18196
C         -2.44522         2.95384         0.61944
C         -1.15613         3.63129         0.42378
C          0.04054         2.89023         0.41763
C          1.28212         3.58941         0.30390
C          2.50702         2.86845         0.18094
C          3.73538         3.57610         0.07431
C          4.95348         2.86114        -0.13824
C          6.21121         3.58077        -0.15158
C          7.43285         2.90038        -0.25167
C          8.68596         3.58260        -0.09715
C          9.88836         2.83499        -0.07697
C         -8.57047         5.11171        -0.22700
C         -7.39467         5.80511        -0.35818
C         -6.10290         5.07505        -0.47966
C         -4.83683         5.79197        -0.22575
C         -3.63856         5.07098        -0.00039
C         -2.40326         5.76759         0.11516
C         -1.15814         5.04839         0.27435
C          0.06790         5.74696         0.29624
C          1.29894         5.01543         0.33188
C          2.54135         5.70384         0.34786
C          3.74804         5.00576         0.19765
C          5.00571         5.71722         0.14752
C          6.21236         5.01083         0.00948
C          7.47227         5.71929         0.00269
C          8.67495         5.00072        -0.00585
C         -7.31278         7.24442        -0.44290
C         -6.09946         7.91628        -0.41974
C         -4.84004         7.20044        -0.26652
C         -3.61047         7.90332        -0.17432
C         -2.38827         7.18608        -0.00971
C         -1.14781         7.89712         0.03568
C          0.07883         7.18970         0.20281
C          1.29424         7.89460         0.26658
C          2.55078         7.17164         0.67477
C          3.81417         7.87567         0.26418
C          5.00923         7.15899         0.16482
C          6.26668         7.86245         0.04101
C          7.45835         7.14907         0.00640
C         -6.03469         9.35881        -0.49427
C         -4.84935        10.02995        -0.43350
C         -3.58745         9.33912        -0.27659
C         -2.37543        10.01901        -0.22973
C         -1.13405         9.32342        -0.07847
C          0.10094        10.00628        -0.04389
C          1.31704         9.31143         0.13032
C          2.58190         9.99825         0.13693
C          3.79619         9.30583         0.15742
C          5.06095         9.99232         0.03132
C          6.23834         9.30400        -0.00617
C        -11.11181        -0.61575        -0.41026
C         -9.91207        -1.40465        -0.17061
C         -8.64085        -0.66541        -0.13945
C         -7.44954        -1.39440        -0.13651
C         -6.14163        -0.73740        -0.26682
C         -4.93950        -1.46909         0.18531
C         -3.74616        -0.69990         0.54472
C         -2.42811        -1.44879         0.63348
C         -1.16589        -0.70301         0.42044
C          0.00882        -1.40246         0.12817
C          1.24669        -0.70052         0.05690
C          2.47481        -1.39969        -0.16720
C          3.69014        -0.70767        -0.20390
C          4.94616        -1.43210        -0.31075
C          6.16200        -0.74681        -0.41087
C          7.41615        -1.43334        -0.37881
C          8.65849        -0.70995        -0.34317
C          9.89389        -1.43839        -0.21203
C         11.11876        -0.69540        -0.08644
C         -9.95586        -2.76394        -0.00547
C         -8.73666        -3.55469         0.41692
C         -7.47614        -2.85487        -0.07230
C         -6.18580        -3.59590         0.08347
C         -4.93510        -2.83650         0.31356
C         -3.70960        -3.57602         0.51284
C         -2.47718        -2.90284         0.44041
C         -1.26527        -3.61164         0.25343
C         -0.07093        -2.86162        -0.27931
C          1.22353        -3.61377        -0.11729
C          2.45791        -2.86467        -0.55752
C          3.73901        -3.58133        -0.23144
C          4.94959        -2.86932        -0.24816
C          6.19891        -3.57211        -0.21632
C          7.42654        -2.85293        -0.27465
C          8.67223        -3.57132        -0.22517
C          9.88609        -2.83800        -0.19271
C         -8.68043        -5.01916         0.02401
C         -7.51079        -5.71881         0.16231
C         -6.28057        -4.99837         0.70553
C         -4.96508        -5.72636         0.46615
C         -3.73823        -5.01139         0.49813
C         -2.49851        -5.72007         0.48850
C         -1.26169        -5.00383         0.34011
C         -0.00191        -5.73544         0.26588
C          1.24050        -4.97740         0.06628
C          2.50509        -5.70523         0.04242
C          3.73551        -4.98955        -0.09767
C          4.97641        -5.70330        -0.07281
C          6.20432        -4.99202        -0.15467
C          7.45254        -5.70906        -0.17688
C          8.65820        -4.98693        -0.19479
C         -7.40826        -7.13885        -0.06192
C         -6.20831        -7.82358         0.04121
C         -4.95731        -7.11478         0.28548
C         -3.71558        -7.82535         0.30387
C         -2.50902        -7.13815         0.48765
C         -1.23483        -7.89049         0.78174
C          0.01125        -7.09725         0.43348
C          1.29064        -7.82395         0.49472
C          2.53433        -7.10127         0.19566
C          3.75003        -7.83086         0.07370
C          4.97435        -7.12847        -0.04362
C          6.22293        -7.83967        -0.15606
C          7.42299        -7.13724        -0.19668
C         -6.14061        -9.25089        -0.16523
C         -4.95596        -9.92970        -0.15691
C         -3.69508        -9.26292         0.06286
C         -2.48986        -9.93376        -0.04873
C         -1.22082        -9.29305         0.18993
C         -0.03819        -9.96178         0.01151
C          1.27074        -9.34203         0.30451
C          2.53127        -9.97297        -0.09470
C          3.72631        -9.27737        -0.05951
C          4.99219        -9.95523        -0.25218
C          6.17552        -9.28085        -0.25576
O         -5.96694        -0.00201        -1.54700
O         -3.15154        -1.06149         1.84719
O         -1.20622        -8.05953         2.23446
H         -0.31945        -8.44158         2.44955
O         -6.42179        -4.85141         2.09977
O         -0.31308        -2.79326        -1.75133
H         -0.53080        -3.70244        -2.05172
O          2.39855        -2.85696        -2.03397
H          1.47476        -2.58894        -2.27075
O         -2.54905         2.28667         1.92888
O         -8.70193        -3.49152         1.87256
H         -7.90431        -4.03144         2.17564
O          2.55067         7.23028         2.16148
H          2.56515         8.17977         2.40916
O          6.77666         1.15027        -1.84366
O         -8.67151         3.69025         1.65848
H         -7.89108         4.19973         1.96535
O         -6.77364        -3.47122        -1.23094
O          1.37355        -8.72971         1.65743
O         -6.04704         4.24130        -1.70068
H         12.06284        -1.25397        -0.00493
H         12.06906         1.21926         0.09338
H         10.84350         3.36947         0.03594
H          9.63114         5.54316         0.04033
H          8.41611         7.68921        -0.04044
H          7.19305         9.84372        -0.09199
H          5.05724        11.09058        -0.03003
H          2.58693        11.09400         0.03818
H          0.11547        11.10139        -0.14925
H         -2.36293        11.11623        -0.31421
H         -4.83502        11.12789        -0.50225
H         -6.97655         9.91547        -0.60976
H         -8.24864         7.82179        -0.49139
H         -9.51527         5.67490        -0.16487
H        -10.81272         3.43518        -0.30926
H        -12.02589         1.29982        -0.61975
H        -12.06610        -1.15268        -0.51852
H        -10.92835        -3.27950        -0.05136
H         -9.60515        -5.53499        -0.28201
H         -8.32447        -7.69832        -0.31166
H         -7.08074        -9.79367        -0.34612
H         -4.94465       -11.01590        -0.33248
H         -2.48817       -10.99799        -0.33216
H         -0.04451       -10.99621        -0.36668
H          2.52548       -11.03851        -0.37085
H          4.98098       -11.05017        -0.35728
H          7.12331        -9.82800        -0.36726
H          8.37330        -7.68805        -0.26462
H          9.61443        -5.53128        -0.18461
H         10.83935        -3.38291        -0.11984
