         600
 CSIRO Nanostructure Databank - Neutral Graphene Oxide Data Set
C         23.05003        27.52713        -1.15967
C         23.01246        28.86449        -0.84689
C         22.96503        31.70532        -0.14110
C         22.96572        33.07129        -0.04314
C         22.98592        35.98646        -0.06697
C         22.99069        37.35888        -0.09508
C         23.00528        40.26996        -0.20324
C         22.99791        41.63613        -0.24945
C         22.95966        44.55447        -0.32133
C         22.96654        45.91967        -0.43311
C         25.51784        24.72001        -1.44862
C         24.31639        25.41723        -1.49432
C         25.43970        27.37478        -0.56650
C         24.26464        26.76155        -1.06654
C         25.35002        28.74732        -0.05010
C         24.15134        29.54777        -0.32671
C         25.41293        31.65357         0.14192
C         24.17404        30.94517        -0.08453
C         25.40876        33.08658         0.18850
C         24.18196        33.80746         0.08515
C         25.41708        35.94990         0.24334
C         24.18797        35.23841         0.09255
C         25.41919        37.37842         0.21196
C         24.20055        38.10053         0.03474
C         25.43972        40.24764         0.13683
C         24.21273        39.53092        -0.00212
C         25.44584        41.68882         0.11103
C         24.19423        42.40494        -0.07294
C         25.38746        44.58186         0.31150
C         24.16142        43.80778        -0.10013
C         25.42082        45.99525        -0.20646
C         24.20610        46.66401        -0.43882
C         25.40721        48.74512        -0.78301
C         24.21534        48.04891        -0.73796
C         27.94882        23.16403        -0.60607
C         27.99363        24.57283        -1.14731
C         26.69985        25.33553        -1.00756
C         27.91839        27.39526        -0.28820
C         26.67800        26.68480        -0.57460
C         27.92424        28.76896        -0.00182
C         26.66281        29.48991         0.24493
C         27.88085        31.65348         0.32714
C         26.65219        30.96039         0.21672
C         27.87277        33.08271         0.43144
C         26.63873        33.80157         0.34138
C         27.86566        35.94724         0.60849
C         26.64285        35.22820         0.40321
C         27.84424        37.36363         0.60008
C         26.64927        38.09198         0.35671
C         27.90003        40.24989         0.33885
C         26.65961        39.52878         0.29751
C         27.91143        41.67869         0.24953
C         26.66569        42.39569         0.19209
C         27.86881        44.54991         0.06236
C         26.68515        43.84171         0.13011
C         27.90018        45.98229        -0.15833
C         26.65254        46.69154        -0.30648
C         27.90494        48.80090        -0.61816
C         26.64628        48.08772        -0.57619
C         27.94401        50.20781        -0.75855
C         30.39687        23.13384        -0.48270
C         29.09964        22.48856        -0.38435
C         30.41965        24.57106        -0.51982
C         29.20202        25.30301        -0.62459
C         30.39864        27.39320        -0.15303
C         29.17201        26.68758        -0.37398
C         30.38928        28.80126         0.07448
C         29.14464        29.49976         0.12547
C         30.34949        31.58716         0.58648
C         29.13071        30.91412         0.34751
C         30.30153        33.01757         0.93617
C         29.07814        33.79505         0.68404
C         30.35949        35.90250         0.84661
C         29.10275        35.20834         0.77121
C         30.38578        37.37282         0.95797
C         29.07160        38.12899         0.87050
C         30.36068        40.23455         0.46094
C         29.12270        39.55898         0.52662
C         30.36603        41.65475         0.27175
C         29.14591        42.37014         0.24607
C         30.36940        44.54582        -0.19436
C         29.16721        43.87172         0.41130
C         30.37878        45.91559        -0.39812
C         29.12322        46.65708        -0.33464
C         30.37092        48.78522        -0.63863
C         29.12997        48.08278        -0.52941
C         30.38020        50.20685        -0.72816
C         29.14481        50.89057        -0.78873
C         32.81921        20.28117        -0.34394
C         31.64113        20.97507        -0.39394
C         32.86568        23.10685        -0.38222
C         31.61180        22.41013        -0.41227
C         32.88427        24.53414        -0.35459
C         31.64883        25.26772        -0.38809
C         32.85534        27.41515        -0.15819
C         31.63964        26.69526        -0.24310
C         32.85606        28.79876         0.11011
C         31.61762        29.50528         0.25551
C         32.85548        31.61093         0.67410
C         31.60179        30.90789         0.53390
C         32.88464        33.04294         0.76341
C         31.63044        33.77845         0.99112
C         32.81928        35.94122         0.62336
C         31.58743        35.23197         0.79140
C         32.83079        37.37259         0.53930
C         31.62343        38.10683         0.64682
C         32.85224        40.21535         0.30904
C         31.61507        39.51428         0.49776
C         32.84000        41.64686         0.06863
C         31.61263        42.33209         0.04748
C         32.89728        44.47806        -0.56681
C         31.56988        43.73161        -0.40345
C         32.88632        45.94809        -0.57457
C         31.62401        46.64231        -0.64111
C         32.84438        48.79355        -0.94350
C         31.60026        48.04557        -0.71834
C         32.86339        50.25265        -0.75541
C         31.63475        50.94498        -0.72068
C         32.85583        53.04858        -0.66787
C         31.66102        52.36255        -0.66882
C         35.34854        18.82426         0.10529
C         35.29794        20.20612        -0.23735
C         34.09261        20.93981        -0.34797
C         35.32108        23.10544        -0.33551
C         34.10230        22.38591        -0.39124
C         35.33579        24.52248        -0.22562
C         34.11480        25.22970        -0.28072
C         35.37640        27.39140        -0.02321
C         34.13312        26.71385        -0.52586
C         35.35762        28.78552         0.18331
C         34.09960        29.50785         0.25637
C         35.35510        31.57595         0.78713
C         34.07687        30.87965         0.56246
C         35.36261        33.10505         0.77770
C         34.06489        33.79084         0.63771
C         35.26907        35.94655         0.40029
C         34.04293        35.22160         0.53741
C         35.29158        37.33897         0.44044
C         34.06918        38.07620         0.46050
C         35.34646        40.19102         0.26061
C         34.07594        39.50048         0.35231
C         35.40249        41.65001        -0.11885
C         34.07930        42.37035        -0.06016
C         35.35094        44.50233        -0.06582
C         34.12145        43.75419        -0.20926
C         35.34723        45.91498        -0.21844
C         34.11466        46.61032        -0.49300
C         35.37847        48.80753        -0.41422
C         34.18239        48.04548        -0.78172
C         35.35349        50.23319        -0.47511
C         34.10368        50.94292        -0.67386
C         35.34536        53.08753        -0.59790
C         34.09966        52.36619        -0.65541
C         35.38646        54.49904        -0.73365
C         37.81385        18.79915         0.09326
C         36.54078        18.14836         0.22461
C         37.84385        20.18400        -0.16353
C         36.58403        20.87254        -0.47615
C         37.85674        23.09809        -0.17508
C         36.59918        22.41058        -0.51408
C         37.82772        24.50691         0.01113
C         36.59313        25.22808        -0.08696
C         37.83081        27.33993         0.22968
C         36.58809        26.64716         0.04378
C         37.83022        28.76030         0.24315
C         36.59608        29.48843         0.28109
C         37.79723        31.64458         0.29157
C         36.61513        30.90273         0.44603
C         37.80641        33.08165         0.23939
C         36.59861        33.77873         0.37142
C         37.83837        35.97093        -0.00807
C         36.51442        35.20334         0.08707
C         37.84084        37.40162         0.28850
C         36.57595        38.07137         0.74844
C         37.81293        40.24525         0.40896
C         36.54381        39.53171         0.40698
C         37.82107        41.66179         0.49140
C         36.49892        42.37724         0.66494
C         37.75179        44.54130         0.40755
C         36.56085        43.83739         0.28052
C         37.77673        45.95496         0.21642
C         36.56591        46.64790        -0.06931
C         37.78433        48.79025         0.11609
C         36.57469        48.09087        -0.10770
C         37.74572        50.27608         0.34706
C         36.54173        50.96553        -0.24404
C         37.80618        53.10438        -0.28604
C         36.56197        52.38011        -0.36990
C         37.80901        54.51517        -0.43749
C         36.57455        55.18801        -0.65639
C         40.29161        15.98044         0.36671
C         39.09543        16.66495         0.37304
C         40.28465        18.77723         0.00381
C         39.05568        18.07237         0.18144
C         40.29210        20.21334        -0.08119
C         39.07078        20.91783        -0.15055
C         40.28484        23.05874         0.19973
C         39.06503        22.36866        -0.08993
C         40.25318        24.45762         0.42840
C         39.05470        25.19333         0.29209
C         40.26758        27.36945         0.51888
C         39.05935        26.63600         0.36015
C         40.27599        28.77141         0.43330
C         39.06062        29.45839         0.26926
C         40.35296        31.66904         0.03572
C         39.03538        30.90818         0.02483
C         40.31214        33.12450         0.18215
C         39.07128        33.80856         0.12566
C         40.30350        35.95225         0.25611
C         39.08779        35.22465         0.13860
C         40.29603        37.38304         0.27883
C         39.04177        38.09053         0.33534
C         40.27106        40.24934         0.43992
C         39.03759        39.54075         0.42483
C         40.26517        41.67367         0.51738
C         39.02113        42.36306         0.57680
C         40.27031        44.55104         0.59259
C         38.98485        43.83334         0.92006
C         40.25314        45.96068         0.46900
C         39.01158        46.67521         0.33154
C         40.26107        48.82028         0.33087
C         39.00912        48.09482         0.25742
C         40.25803        50.27498         0.19501
C         39.05514        50.97644         0.07204
C         40.27495        53.10967        -0.15128
C         39.04642        52.39363        -0.11911
C         40.27388        54.54067        -0.26651
C         39.05168        55.24985        -0.39300
C         40.27056        57.36515        -0.45745
C         39.08269        56.67148        -0.48388
C         42.76685        15.95315         0.14085
C         41.51715        16.66525         0.14300
C         42.77114        18.77308        -0.44687
C         41.50754        18.06159        -0.03268
C         42.78209        20.23254        -0.07268
C         41.54788        20.92648        -0.00908
C         42.77305        23.00439         0.40891
C         41.53726        22.33236         0.21547
C         42.77403        24.40710         0.86012
C         41.47602        25.15306         0.88991
C         42.81791        27.37875         0.73076
C         41.51615        26.66283         0.88133
C         42.81041        28.78223         0.63617
C         41.51872        29.52979         0.85424
C         42.77666        31.66347         0.45057
C         41.58041        30.95587         0.37961
C         42.77907        33.10339         0.35898
C         41.54161        33.82132         0.30085
C         42.77205        35.96207         0.37330
C         41.54220        35.24797         0.32584
C         42.75893        37.39281         0.36942
C         41.52016        38.10068         0.34662
C         42.73850        40.25414         0.40260
C         41.51480        39.53729         0.40074
C         42.73148        41.69251         0.43819
C         41.50639        42.39644         0.52436
C         42.72867        44.55794         0.44535
C         41.49074        43.84010         0.54106
C         42.72006        45.97707         0.45905
C         41.48634        46.68530         0.45911
C         42.74521        48.86167         0.70529
C         41.46059        48.11981         0.43201
C         42.74046        50.29550         0.23416
C         41.51323        50.98522         0.12384
C         42.74729        53.12693        -0.01458
C         41.51277        52.40822        -0.03358
C         42.74915        54.55979        -0.10989
C         41.51065        55.25735        -0.23988
C         42.74307        57.38035        -0.30856
C         41.50817        56.67708        -0.33774
C         43.96743        16.62412         0.06798
C         45.25522        18.74964        -0.02533
C         44.03393        18.03661        -0.07593
C         45.26790        20.19070         0.01792
C         44.00839        20.91543         0.04835
C         45.25133        23.07357         0.21716
C         44.00465        22.32879         0.26568
C         45.25685        24.46616         0.30268
C         44.07206        25.19377         0.77390
C         45.26463        27.38267         0.48775
C         44.04225        26.67221         0.64850
C         45.26750        28.80966         0.49702
C         44.02682        29.51393         0.55804
C         45.24998        31.66219         0.50206
C         44.02638        30.94727         0.54011
C         45.24577        33.09528         0.47093
C         44.00547        33.81370         0.41573
C         45.24216        35.95929         0.42394
C         44.00422        35.24386         0.41024
C         45.22741        37.39421         0.37440
C         43.99084        38.11251         0.37266
C         45.21192        40.25807         0.28868
C         43.98022        39.54060         0.35697
C         45.20992        41.69303         0.25485
C         43.97232        42.41479         0.35360
C         45.20326        44.55553         0.22206
C         43.96573        43.83404         0.34361
C         45.21378        45.97394         0.18273
C         43.96931        46.71255         0.32006
C         45.19928        48.83015        -0.15225
C         43.97270        48.09128         0.30518
C         45.21243        50.29542         0.17453
C         43.97170        50.99730         0.16766
C         45.21842        53.14174         0.14806
C         43.97555        52.42869         0.10048
C         45.21885        54.56762         0.05492
C         43.97174        55.28201        -0.08071
C         43.93405        56.70271        -0.18470
C         47.69554        18.74028         0.08871
C         46.50847        18.06207         0.00950
C         47.73345        20.16328         0.18673
C         46.48999        20.88546         0.13592
C         47.70852        23.02493         0.25603
C         46.50269        22.34055         0.14694
C         47.78640        24.46740         0.03419
C         46.46283        25.24314         0.02443
C         47.73671        27.37691         0.31029
C         46.51144        26.69133         0.31080
C         47.74855        28.81487         0.42584
C         46.50350        29.52464         0.46436
C         47.72200        31.67815         0.52868
C         46.49244        30.95080         0.49012
C         47.70086        33.09030         0.56716
C         46.47657        33.80684         0.50855
C         47.70850        35.97090         0.39321
C         46.47056        35.24992         0.46941
C         47.69057        37.39017         0.26307
C         46.45264        38.10853         0.29799
C         47.67379        40.24647         0.11492
C         46.44033        39.53760         0.23669
C         47.67223        41.66855         0.03845
C         46.43654        42.39903         0.12582
C         47.65399        44.55755        -0.00186
C         46.43362        43.83501         0.11521
C         47.68963        45.96175         0.10882
C         46.45412        46.68583         0.15516
C         47.67973        48.82968         0.33487
C         46.47567        48.10625         0.16421
C         47.65973        50.25033         0.40848
C         46.43659        50.97870         0.29336
C         47.67907        53.14335         0.31826
C         46.44491        52.43025         0.29506
C         47.64969        54.55709         0.21200
C         46.46034        55.24691         0.09435
C         50.22572        20.20823         0.42803
C         48.96972        20.84438         0.38555
C         50.25324        23.07056         0.62377
C         48.93932        22.29836         0.59758
C         50.24336        24.52790         0.37773
C         49.03002        25.22903         0.27087
C         50.23110        27.36136         0.33644
C         49.00405        26.65395         0.26628
C         50.23865        28.81334         0.43212
C         48.97294        29.53620         0.47711
C         50.20558        31.69208         0.56854
C         48.97518        30.95780         0.55762
C         50.22347        33.08630         0.49711
C         48.97256        33.84154         0.86241
C         50.15998        35.95387         0.20159
C         48.95037        35.27760         0.41933
C         50.14769        37.37654         0.03559
C         48.92058        38.09657         0.11750
C         50.13003        40.23020        -0.10816
C         48.90470        39.52589         0.03799
C         50.12842        41.66457        -0.18924
C         48.90734        42.35531        -0.14039
C         50.21031        44.57945        -0.23026
C         48.88444        43.81646        -0.30640
C         50.15698        45.97889         0.19056
C         48.94445        46.68072         0.24160
C         50.14593        48.83476         0.55357
C         48.93162        48.10844         0.44457
C         50.17998        50.24440         0.55611
C         48.89863        50.98671         0.84340
C         50.16702        53.06813         0.34387
C         48.92904        52.43542         0.43513
C         51.42962        20.91359         0.43035
C         52.70920        23.04791         0.21228
C         51.49914        22.32152         0.40813
C         52.72281        24.48890         0.25380
C         51.47786        25.21503         0.32172
C         52.71866        27.32223         0.35688
C         51.46801        26.64023         0.31262
C         52.70547        28.76398         0.59618
C         51.43645        29.49681         0.53476
C         52.71639        31.67093         0.25148
C         51.50177        30.97262         0.84217
C         52.66955        33.07974         0.04747
C         51.43704        33.80652         0.25423
C         52.61388        35.92460        -0.19084
C         51.41337        35.22147         0.11219
C         52.61771        37.35326        -0.30694
C         51.37064        38.08852        -0.16861
C         52.58222        40.24643        -0.43910
C         51.34076        39.49162        -0.22627
C         52.59097        41.66608        -0.07573
C         51.39334        42.39130        -0.14123
C         52.67925        44.48491         0.18752
C         51.43938        43.80364        -0.00465
C         52.70046        45.90743         0.28400
C         51.42305        46.61113         0.54910
C         52.67764        48.84653         0.47224
C         51.42365        48.12043         0.70452
C         52.67008        50.21678         0.36400
C         51.41295        50.95344         0.48570
C         51.37878        52.36293         0.42433
C         55.11770        23.05364        -0.17132
C         53.94054        22.36892        -0.01492
C         55.17829        24.47829        -0.07400
C         53.94518        25.19551         0.15624
C         55.17452        27.37060         0.07146
C         53.94667        26.63719         0.23922
C         55.19155        28.76398        -0.03243
C         54.00606        29.53358         0.36904
C         55.09862        31.63540        -0.38723
C         53.92127        30.97590         0.06237
C         55.07002        33.05021        -0.56224
C         53.85236        33.77381        -0.33134
C         55.00860        35.91250        -0.78187
C         53.83201        35.20822        -0.42359
C         55.05460        37.32836        -0.75385
C         53.83355        38.02481        -0.52391
C         55.15855        40.15750        -0.35019
C         53.87057        39.49223        -0.58940
C         55.19172        41.52489         0.15231
C         53.83612        42.31396         0.29309
C         55.14917        44.44203         0.39611
C         53.90726        43.77117         0.27974
C         55.13631        45.86825         0.39448
C         53.91672        46.59303         0.32532
C         55.17671        48.80253         0.69620
C         53.94074        48.09441         0.08744
C         55.12944        50.26376         0.28376
C         53.95036        50.90206         0.14631
C         57.60326        24.50127        -0.61029
C         56.39941        25.16534        -0.24466
C         57.59625        27.35115        -0.63657
C         56.48879        26.63126         0.09490
C         57.55429        28.75965        -0.79971
C         56.35526        29.48874        -0.48164
C         57.48754        31.59904        -1.08257
C         56.31043        30.89739        -0.64979
C         57.46259        33.02954        -1.21439
C         56.24726        33.72482        -0.99301
C         57.50915        35.94544        -1.43596
C         56.17471        35.16149        -1.24883
C         57.51932        37.37487        -1.09582
C         56.30130        38.05317        -0.88822
C         57.59712        40.18547        -0.55424
C         56.34220        39.47225        -0.60171
C         57.61538        41.60523        -0.31872
C         56.41637        42.30311         0.02187
C         57.64968        44.39116         0.27012
C         56.41059        43.70172         0.29028
C         57.69858        45.81269         0.62780
C         56.38339        46.59879         0.65409
C         57.75337        48.68446         0.82308
C         56.48040        48.07401         0.28864
C         58.74863        25.19378        -0.92520
C         59.87411        27.32234        -1.52274
C         58.74640        26.62983        -1.00863
C         59.85849        28.69547        -1.63752
C         58.70689        29.44802        -1.28340
C         59.85197        31.61634        -1.72868
C         58.68366        30.88628        -1.37373
C         59.86336        32.99240        -1.73409
C         58.68710        33.74297        -1.47141
C         59.94643        35.88545        -1.18897
C         58.74802        35.17163        -1.37313
C         59.96018        37.27175        -1.04759
C         58.77462        38.04155        -0.97983
C         60.01896        40.21599        -0.80962
C         58.80688        39.48119        -0.77548
C         60.03682        41.58757        -0.63009
C         58.85185        42.31657        -0.36814
C         60.05078        44.50850        -0.20517
C         58.86399        43.74215        -0.10361
C         60.08123        45.89009         0.03894
C         58.93806        46.57487         0.43815
C         58.91382        47.98146         0.77653
O         33.62793        48.37311        -2.10638
O         51.44166        47.23815         1.89212
O         29.69745        37.84820         2.17272
O         57.01468        46.19213         1.88651
O         53.56137        29.19304         1.73732
O         49.56008        44.29283        -1.52123
O         49.54866        22.72367         1.87340
O         30.94087        33.34118         2.21325
O         53.17884        40.03868        -1.79774
O         36.65227        21.61670        -1.74511
O         54.50414        41.67985         1.44056
O         35.44384        32.34063         2.03241
O         39.71376        31.23697        -1.24466
O         56.65181        35.58666        -2.56407
O         37.06518        35.60046        -1.21913
O         41.32347        25.91250         2.13547
O         47.13498        24.87912        -1.22519
O         25.85909        28.90669         1.32230
O         43.57514        24.65245         2.05477
O         32.19412        43.90572        -1.72425
O         55.11468        48.72931         2.13143
H         54.23999        49.06560         2.41947
O         51.66437        31.06600         2.30616
H         52.43464        30.48380         2.52772
O         56.60442        48.10117        -1.17094
H         56.83847        49.01524        -1.43833
O         34.21321        26.84356        -2.00830
H         35.02132        26.36620        -2.29569
O         36.66229        38.00970         2.23078
H         35.95434        38.58809         2.58869
O         28.20062        24.43927        -2.60322
H         29.05325        23.97051        -2.73058
O         48.81505        51.02069         2.33585
H         49.62399        51.47524         2.65555
O         35.83133        41.70578        -1.51356
H         35.09668        41.37645        -2.07242
O         25.25887        44.72028         1.79010
H         24.42162        45.20515         1.95590
O         42.82129        48.95842         2.18280
H         41.98318        49.36468         2.49202
O         53.97959        48.23075        -1.36306
H         54.87587        47.93764        -1.66295
O         38.84600        43.87204         2.39648
H         39.68269        43.52849         2.77752
O         42.75007        18.76042        -1.93317
H         42.71885        17.81937        -2.20934
O         36.17383        42.32990         2.07812
H         36.87919        42.83118         2.54886
O         29.31283        44.09185         1.87178
H         28.46441        43.82839         2.29034
O         49.02927        33.92104         2.34577
H         49.29493        33.03451         2.67516
O         37.55356        50.41763         1.81843
H         37.47747        51.37821         2.00550
O         45.11515        48.80149        -1.64638
H         45.21753        47.86431        -1.92145
O         56.89645        26.65331         1.52419
H         56.86749        27.58914         1.81837
O         41.38192        29.64281         2.32552
H         41.42033        28.73259         2.69374
H         22.14900        27.03138        -1.54847
H         22.07692        29.41618        -1.01174
H         22.00375        31.18509        -0.24426
H         22.00368        33.59813        -0.07596
H         22.02527        35.46752        -0.17735
H         22.03306        37.87965        -0.22097
H         22.05287        39.73991        -0.33042
H         22.04025        42.14830        -0.40785
H         22.00214        44.02765        -0.43392
H         22.02747        46.46374        -0.60842
H         25.55446        23.68246        -1.80882
H         23.40678        24.93415        -1.87832
H         25.38185        49.82006        -1.00449
H         23.26358        48.56589        -0.92620
H         26.97952        22.65538        -0.49916
H         27.01212        50.78378        -0.82468
H         29.05270        21.43500        -0.07322
H         29.12048        51.98381        -0.88061
H         32.78420        19.18322        -0.33918
H         30.69749        20.41421        -0.42829
H         32.82867        54.14538        -0.63552
H         30.72649        52.93665        -0.63510
H         34.41351        18.27198         0.27182
H         34.46444        55.06278        -0.92517
H         36.50815        17.07751         0.46480
H         36.55583        56.27721        -0.78692
H         40.30703        14.89149         0.51758
H         38.16379        16.10328         0.52208
H         40.27237        58.46239        -0.52751
H         38.14699        57.23836        -0.57202
H         42.75325        14.86265         0.27799
H         42.73573        58.47712        -0.38560
H         44.89302        16.04328         0.18359
H         44.86766        57.27988        -0.16602
H         48.63237        18.16810         0.10124
H         46.53258        16.96635        -0.05184
H         48.58609        55.12969         0.23902
H         46.49591        56.34207         0.03005
H         50.28295        19.11219         0.38266
H         50.22357        54.15093         0.16515
H         52.35659        20.32581         0.38825
H         52.31384        52.93394         0.35763
H         56.03581        22.47802        -0.34416
H         53.95659        21.27285        -0.07335
H         56.07219        50.82343         0.17728
H         53.94519        51.97121        -0.10948
H         57.62306        23.40568        -0.68860
H         57.75660        49.74405         1.11768
H         59.66056        24.65042        -1.21126
H         60.76626        26.75160        -1.81771
H         60.75215        29.20197        -2.02422
H         60.78190        31.08460        -1.96678
H         60.79663        33.51665        -1.98019
H         60.90337        35.34691        -1.14954
H         60.93377        37.76470        -0.92567
H         60.96983        39.70041        -0.99893
H         61.00368        42.10655        -0.67259
H         60.98727        44.02102        -0.50593
H         61.02821        46.43582        -0.08231
H         59.86839        48.47570         1.01551
