         349
 CSIRO Nanostructure Databank - Neutral Graphene Oxide Data Set
C          1.18158         3.45051        -0.61513
C         -0.03266         4.17096        -0.56755
C          1.16534         6.37587        -0.68374
C         -0.07399         5.54368        -0.55608
C          1.24652         7.57771         0.29586
C          0.00720         8.42897         0.39242
C          1.12561        10.43469        -0.59327
C         -0.02298         9.73710         0.10412
C          1.13730        11.94877        -0.46767
C         -0.05816        12.65682        -0.42413
C          1.10730        14.79812        -0.43389
C         -0.06957        14.06254        -0.38615
C          1.03758        16.28827        -0.38251
C         -0.04163        16.96794         0.34896
C          1.26394        19.04982         0.53988
C          0.03301        18.29108         0.65153
C          1.31469        20.44402         0.94612
C          0.09340        21.22433         1.01746
C          1.33242        23.15069         1.98578
C          0.09182        22.51808         1.40904
C          1.33104        24.69079         1.97100
C          0.14742        25.50675         1.67032
C          1.46787        27.59089         1.50529
C          0.22292        26.87207         1.59823
C          1.47278        29.02793         1.68189
C          3.65866         3.41712        -0.54090
C          2.43303         4.12630        -0.59170
C          3.66220         6.23532        -0.42972
C          2.44168         5.55753        -0.55559
C          3.66205         7.67576        -0.24797
C          2.48425         8.38706        -0.06010
C          3.62174        10.54911        -0.38368
C          2.45280         9.80891        -0.22000
C          3.61758        11.97357        -0.61260
C          2.36446        12.67267        -0.53394
C          3.60239        14.80580        -0.64875
C          2.36391        14.10677        -0.53741
C          3.59445        16.28229        -0.78436
C          2.33613        17.06662        -0.53596
C          3.73478        18.96223         0.40150
C          2.41843        18.38139         0.12232
C          3.80272        20.40085         0.89794
C          2.53679        21.13319         1.07730
C          3.82831        23.21533         1.32369
C          2.59440        22.52444         1.38631
C          3.89097        24.63343         1.50021
C          2.66738        25.40762         1.79031
C          3.87046        27.37560         0.95582
C          2.64511        26.81811         1.36555
C          3.88387        29.48581         1.34986
C          2.55788        29.86969         1.78150
C          6.14897         3.40870        -0.43586
C          4.90069         4.09241        -0.50123
C          6.14469         6.23214        -0.54974
C          4.89901         5.52493        -0.47248
C          6.15646         7.64731        -0.58389
C          4.93654         8.37325        -0.21289
C          6.11357        10.58949        -0.75450
C          4.92576         9.89889        -0.23466
C          6.08554        11.95808        -0.96390
C          4.83491        12.67159        -0.77630
C          6.10187        14.78727        -0.80906
C          4.84261        14.10828        -0.76704
C          6.14954        16.22142        -0.34765
C          4.89748        16.99930        -0.70339
C          6.10010        19.12285        -0.34303
C          4.93124        18.41671        -0.25924
C          6.19806        20.49788         0.13684
C          5.04328        21.15217         0.65465
C          6.28362        23.24950         0.82831
C          5.05197        22.53380         0.92879
C          6.32309        24.65272         1.06852
C          5.09692        25.33971         1.32470
C          6.33803        27.53054         1.29634
C          5.11286        26.77574         1.22253
C          6.33894        28.99577         1.49729
C          5.13319        29.76711         1.83672
C          8.61429         3.45252        -0.20250
C          7.37755         4.10201        -0.42565
C          8.59978         6.26795        -0.68009
C          7.38201         5.53886        -0.58816
C          8.57187         7.66673        -0.89116
C          7.34336         8.34761        -0.82710
C          8.52661        10.52355        -1.58411
C          7.27857         9.79336        -1.14415
C          8.50214        11.98952        -1.50953
C          7.32059        12.66926        -1.29128
C          8.54204        14.81718        -1.29329
C          7.32694        14.12744        -1.14045
C          8.67616        16.23276        -0.78516
C          7.35446        16.96017        -0.90680
C          8.52938        19.23872        -1.17257
C          7.28184        18.44937        -0.95248
C          8.58218        20.63599        -0.65648
C          7.40499        21.21878         0.02626
C          8.71085        23.30498         0.33548
C          7.47014        22.57840         0.41077
C          8.73619        24.66230         0.69433
C          7.53938        25.38089         0.99903
C          8.83095        27.50084         1.46828
C          7.54443        26.80527         1.25543
C          8.83473        29.01145         1.52317
C          7.53480        29.68458         1.48582
C         11.02200         3.54256         0.25903
C          9.82959         4.17610        -0.12145
C         11.05907         6.30238        -0.40781
C          9.85947         5.59401        -0.43072
C         11.12579         7.69762        -1.00710
C          9.82921         8.49211        -0.78110
C         11.03259        10.66810        -1.00131
C          9.89977         9.82176        -1.60425
C         11.00441        12.02872        -1.16391
C          9.81221        12.63562        -1.91122
C         11.05732        14.92239        -1.87026
C          9.75502        14.16049        -1.83193
C         11.06114        16.37156        -1.50782
C          9.87389        17.01625        -1.27066
C         11.05700        19.24860        -1.34389
C          9.78078        18.49080        -1.62601
C         11.06102        20.59751        -1.01350
C          9.89339        21.30502        -0.54754
C         11.15962        23.38279        -0.18411
C          9.92677        22.62627        -0.09329
C         11.17632        24.72925         0.04831
C         10.03350        25.36723         0.72275
C         11.27239        27.62244         0.61064
C         10.11288        26.81149         1.09229
C         11.20087        29.08088         0.71131
C         10.06919        29.71836         1.11302
C         13.37006         3.61282         0.88586
C         12.25082         4.25250         0.34924
C         13.46299         6.41764         0.07414
C         12.28228         5.66272        -0.03616
C         13.49219         7.85783        -0.10637
C         12.27908         8.55485        -0.49754
C         13.43344        10.73325        -0.23492
C         12.21321         9.93956        -0.52647
C         13.43781        12.21867        -0.46447
C         12.14694        12.97196        -0.78345
C         13.61880        14.93580        -1.65657
C         12.35285        14.08808        -1.86876
C         13.53025        16.38860        -1.87338
C         12.29711        17.11442        -1.69206
C         13.52395        19.25909        -1.61304
C         12.28721        18.52865        -1.59373
C         13.58163        20.64644        -1.35000
C         12.29043        21.42871        -1.30964
C         13.65912        23.41828        -0.71672
C         12.43680        22.60480        -0.36172
C         13.61099        24.88566        -0.73363
C         12.33293        25.56839        -0.31524
C         13.54702        27.78274        -0.46336
C         12.35931        26.99745         0.05883
C         13.69727        29.10050         0.32339
C         12.39288        29.90227         0.24363
C         15.78326         3.74751         1.73179
C         14.66782         4.25934         0.90737
C         15.75709         6.57046         1.06327
C         14.70363         5.71037         0.44461
C         15.93949         7.87019         0.36181
C         14.69003         8.58505         0.00016
C         15.92484        10.72672        -0.10288
C         14.73355        10.00438        -0.18326
C         15.93103        12.16381        -0.26660
C         14.75417        12.77607        -1.02037
C         16.05316        14.95533        -0.97782
C         14.77760        14.29377        -1.22871
C         16.47987        16.11379        -1.58646
C         14.65579        17.16939        -2.20186
C         15.92613        19.33083        -2.01897
C         14.71973        18.57991        -1.97980
C         16.03972        20.63133        -1.49092
C         14.81094        21.32035        -1.23297
C         16.10122        23.47982        -1.04899
C         14.84161        22.75698        -0.97346
C         16.12303        24.87404        -0.81469
C         14.88942        25.62870        -0.64281
C         16.09880        27.76170        -0.28226
C         14.84724        26.98938        -0.44548
C         16.04626        29.24109        -0.44509
C         14.88941        29.87791        -0.18222
C         18.04748         3.93351         2.65479
C         16.85828         4.51893         2.10682
C         18.04910         6.84588         2.30158
C         16.82544         6.00125         1.92682
C         18.27871         8.08199         1.43499
C         17.22277         8.60205         0.53388
C         18.45264        10.83782         0.48216
C         17.22784        10.04846         0.15396
C         18.31179        12.33349         0.53560
C         16.99873        12.91535         0.16283
C         18.05744        15.18433         0.64757
C         16.92718        14.38731         0.09009
C         18.58003        16.36274        -0.13614
C         17.58550        16.93745        -1.11974
C         18.93944        19.10761        -1.17398
C         17.82401        18.19494        -1.58398
C         18.53825        20.56770        -0.81693
C         17.31081        21.32877        -1.27925
C         18.64666        23.45738        -1.25905
C         17.32285        22.71707        -1.15903
C         18.57991        24.92911        -0.92854
C         17.37733        25.58508        -0.77157
C         18.60792        27.80662        -0.80663
C         17.39383        27.03395        -0.45063
C         18.55895        29.20409        -0.96330
C         17.27821        30.00860        -0.87252
C         19.21914         4.65753         2.79604
C         20.52818         6.73608         2.52449
C         19.30819         6.03393         2.49050
C         20.59122         8.08054         2.18190
C         19.47176         8.75888         1.59496
C         20.32361        11.02468         2.17567
C         19.71555        10.17891         1.07374
C         20.19849        12.35799         2.24711
C         19.32138        13.12668         1.34072
C         20.04694        15.45560         2.08662
C         19.12060        14.57371         1.48449
C         20.07417        16.80990         1.81507
C         19.17109        17.44237         0.78511
C         20.93709        19.25462         0.26060
C         19.77614        18.54312        -0.04452
C         21.01584        20.59033        -0.12180
C         19.75944        21.32901        -0.34835
C         20.91785        23.53175        -0.24992
C         19.80255        22.79755        -0.53320
C         20.97808        24.94457        -0.49633
C         19.83429        25.64983        -0.80432
C         21.00281        27.82849        -1.24269
C         19.82999        27.10991        -0.94711
C         20.95709        29.21330        -1.38932
C         19.74580        29.89525        -1.25347
O         17.05049        18.73992        -2.62464
O          1.38302        16.96404        -1.63928
O         15.79067        16.54297        -2.73820
O          4.32445        16.72907        -2.00186
O         13.40512        11.72487         0.90270
O         16.87973        27.33903         0.91093
O          8.25351        20.35258        -2.08643
O         15.60511         6.62411         2.51887
O          5.13139         9.17391         1.02434
O         12.67807        25.41445        -1.76637
O          2.08150        25.20694         3.12677
O          7.60351         9.99795        -2.57850
O         18.23308        10.35933        -0.88404
O          8.95983        28.18865         2.75380
O         16.76432        15.17660         1.34826
O         15.15469         4.67746        -0.45663
O         18.68967        20.83738         0.61709
O         16.97954         7.75657        -0.66514
O          3.96632        19.27208         1.82607
O         19.48297        12.92440        -0.14440
O          7.04853        17.60993        -2.15956
O          3.85731        28.58188         0.25798
O         10.23356         9.64946        -2.95758
O         10.25454        14.77340        -3.07988
O         10.46799        25.79422         2.09389
O         18.98841        23.36383        -2.69259
H         19.79538        23.90398        -2.83445
O         12.69699        22.02130         0.95299
H         12.70154        22.74151         1.61821
O         18.05441        18.09608         1.46182
H         18.30089        19.03413         1.63875
O          9.70013        18.45878        -3.08894
H          8.78166        18.18393        -3.31690
O         11.34945         7.43552        -2.40285
H         11.05543         8.24948        -2.91810
O         19.68633        15.83279        -0.91392
H         19.64071        14.84737        -0.93059
O          0.95493        10.15122        -2.01982
H          0.99485         9.17256        -2.13176
O          6.21922        16.20795         1.10084
H          7.14426        15.97245         1.35399
O         14.86307        12.20735        -2.35612
H         14.13158        12.58848        -2.90908
O          9.81418         8.95171         0.60409
H          9.65738         8.17903         1.18706
O         17.00170        30.59713        -2.15337
H         17.82505        31.00394        -2.49233
O         13.26426        28.13117        -1.84283
H         13.06274        27.28205        -2.30655
O         10.02830        12.29705        -3.30997
H         10.08011        11.29111        -3.38459
O         11.74269        13.68124         0.42048
H         12.02388        13.10928         1.17458
O         12.51698        31.08948         1.02539
H         12.86119        30.81083         1.90142
O         12.51823        13.44542        -3.14425
H         11.61692        13.15657        -3.46916
O          1.14618         6.99320        -2.01487
H          1.07346         6.27548        -2.67931
O         12.08027        21.97301        -2.63938
H         11.78447        21.24668        -3.22799
O         20.69762        10.10689         0.01909
H         20.19948        10.01923        -0.82601
O          1.35128        22.75562         3.39096
H          1.88705        23.43715         3.86168
O         17.77664         7.38991         3.63870
H         16.79593         7.46605         3.71433
O         13.91285        28.79402         1.72085
H         14.79763        28.37935         1.81561
O          1.46521         7.00246         1.60684
H          1.67416         7.72933         2.22945
O         19.79757        19.22435        -2.34738
H         19.22101        19.18880        -3.14118
O          8.89942        16.09603         0.67653
H          9.71952        15.56908         0.80593
H          1.16230         2.35193        -0.62886
H         -0.97596         3.60584        -0.53333
H         -1.04375         6.06228        -0.54956
H         -0.87660         7.95343         0.84712
H         -0.95955        10.29192         0.26780
H         -1.02087        12.12860        -0.43163
H         -1.03764        14.58026        -0.34552
H         -0.93353        16.39512         0.64113
H         -0.82208        18.76415         1.15457
H         -0.84714        20.76298         0.68360
H         -0.85943        23.06723         1.44461
H         -0.83190        25.02092         1.55787
H         -0.70834        27.45226         1.50830
H          0.49475        29.45422         1.96052
H          3.64035         2.31737        -0.53709
H          2.40477        30.87693         2.19881
H          6.15236         2.31089        -0.36194
H          5.25606        30.56864         2.58057
H          8.62896         2.36652        -0.02491
H          7.52251        30.78447         1.52594
H         11.00900         2.47152         0.50989
H         10.05839        30.81953         1.11905
H         13.25731         2.61951         1.34560
H         12.22234        30.21057        -0.82043
H         15.80098         2.66735         1.94658
H         14.81285        30.97140        -0.27989
H         18.04793         2.85304         2.85838
H         17.45001        30.84382        -0.12571
H         20.13328         4.13515         3.11647
H         21.44851         6.19992         2.80002
H         21.55929         8.59863         2.21845
H         20.96521        10.51467         2.90963
H         20.69842        12.91171         3.05599
H         20.79095        15.04425         2.78704
H         20.78206        17.45134         2.36068
H         21.76444        18.78293         0.81482
H         21.96346        21.13736        -0.03166
H         21.80618        23.05806         0.19077
H         21.93140        25.46455        -0.33322
H         21.95738        27.29921        -1.36863
H         21.87577        29.77129        -1.61650
H         19.72117        30.98936        -1.37022
