         324
 CSIRO Nanostructure Databank - Neutral Graphene Oxide Data Set
C         30.58926        57.07879         1.09048
C         30.06322        58.32284         0.78595
C         29.25728        59.21553         1.54618
C         30.39184        61.33490         0.78809
C         29.34309        60.60170         1.37627
C         32.95100        52.95805        -0.01599
C         32.91655        54.38118        -0.04845
C         31.80741        55.08908         0.45378
C         32.81019        57.24654        -0.19785
C         31.71041        56.49153         0.39006
C         32.80714        58.67462        -0.28292
C         31.63771        59.42882        -0.18908
C         32.82336        61.49739         0.30283
C         31.59087        60.79807         0.24241
C         35.34187        48.64166        -0.10450
C         35.32103        50.04190        -0.29989
C         34.11410        50.80720        -0.17238
C         35.26273        52.89334        -0.94137
C         34.07708        52.19292        -0.37610
C         35.24478        54.39747        -0.95542
C         34.04582        55.14372        -0.49739
C         35.26080        57.28404        -1.01937
C         34.01572        56.53618        -0.52999
C         35.32224        58.72865        -0.52567
C         34.03082        59.49153        -0.65944
C         35.26287        61.48879         0.24862
C         34.04241        60.86136        -0.00544
C         37.81104        44.34929        -0.01917
C         37.78671        45.75992        -0.14942
C         36.57354        46.48454        -0.07359
C         37.78343        48.59195        -0.41176
C         36.54505        47.89459        -0.19879
C         37.76335        50.01224        -0.52762
C         36.54654        50.72136        -0.54380
C         37.79660        52.90220        -0.45057
C         36.60262        52.14726        -1.04512
C         37.66183        54.35060        -0.32028
C         36.53073        55.10486        -0.75551
C         37.72589        57.21772        -0.41979
C         36.52586        56.51443        -0.67882
C         37.78968        58.69969        -0.40239
C         36.48732        59.39942        -0.28736
C         37.69663        61.44831         0.48888
C         36.51047        60.80913         0.12317
C         40.25110        40.07463         0.21623
C         40.25179        41.48803         0.07842
C         39.04163        42.21484         0.06786
C         40.26599        44.32582        -0.24816
C         39.02042        43.62323        -0.06418
C         40.26108        45.74038        -0.41859
C         39.02596        46.46097        -0.36515
C         40.23389        48.58648        -0.76548
C         39.01418        47.87653        -0.50998
C         40.18958        50.00359        -0.86332
C         38.99933        50.73600        -0.65067
C         40.34237        52.76616        -0.32122
C         39.00620        52.17298        -0.42927
C         40.53330        54.07850         0.23646
C         38.67907        55.13971         0.25427
C         40.20158        57.16243         0.08592
C         38.86364        56.50313        -0.01235
C         40.23862        58.59736         0.46896
C         39.04033        59.38704         0.08343
C         40.10530        61.38040         1.05938
C         38.97122        60.78605         0.57104
C         42.65763        35.72593         0.73107
C         42.28009        37.07995         0.98572
C         41.36094        37.88659         0.34934
C         42.69064        40.05501         0.36549
C         41.43034        39.34340         0.39013
C         42.71658        41.43648         0.01094
C         41.50540        42.17338        -0.07340
C         42.70651        44.30280        -0.47845
C         41.49354        43.60407        -0.26999
C         42.72456        45.71423        -0.62103
C         41.49405        46.44127        -0.60302
C         42.72864        48.54914        -0.85038
C         41.49127        47.86788        -0.78194
C         42.74645        49.99210        -1.14094
C         41.42201        50.73688        -1.18160
C         42.71295        52.92910        -1.08044
C         41.46342        52.16172        -0.85283
C         42.72283        54.42147        -0.77490
C         41.53379        54.93096        -0.08807
C         42.73083        56.94749         0.76630
C         41.48082        56.40044         0.11219
C         42.68086        58.45872         1.00066
C         41.38287        59.19415         0.89599
C         42.64166        61.37224         0.86384
C         41.39734        60.64693         1.34140
C         45.22947        33.06169         1.03091
C         44.03173        33.76100         0.82331
C         45.13426        35.89990         1.59567
C         43.91112        35.15881         1.01461
C         45.27234        37.35783         1.17197
C         44.10216        38.20373         1.22089
C         45.21680        39.93507        -0.11465
C         43.96056        39.39120         0.53648
C         45.21219        41.44365        -0.21366
C         43.99371        42.10254        -0.23185
C         45.26606        44.27346        -0.69484
C         43.95108        43.52608        -0.62250
C         45.22561        45.74498        -0.59102
C         43.98125        46.42785        -0.67437
C         45.21268        48.55583        -0.59787
C         43.97315        47.85366        -0.69621
C         45.20827        50.03542        -0.48535
C         43.95660        50.78560        -0.76968
C         45.18591        52.97057        -0.94987
C         44.01216        52.24828        -1.03274
C         45.20193        54.40859        -0.69741
C         43.99031        55.11436        -0.48169
C         45.18496        57.16048         0.06810
C         43.98122        56.42413         0.05561
C         45.19442        58.58748         0.38336
C         43.94506        59.25425         0.84343
C         45.09278        61.45114         0.58315
C         43.85503        60.73805         0.71159
C         46.41766        33.73755         1.27227
C         47.64292        35.82749         1.18607
C         46.44169        35.16215         1.33837
C         47.73626        37.26016         1.01303
C         46.46839        37.96715         0.90573
C         47.76391        39.94776         0.02641
C         46.45533        39.46273         0.67388
C         47.73605        41.45581        -0.11668
C         46.49820        42.13160        -0.28865
C         47.71977        44.26221        -0.27086
C         46.51641        43.55385        -0.37964
C         47.72278        45.76001        -0.07833
C         46.42898        46.44829        -0.45232
C         47.70447        48.57658        -0.22781
C         46.42121        47.85939        -0.46522
C         47.72661        50.08580        -0.31976
C         46.48342        50.76841        -0.75791
C         47.79496        53.02684        -1.01700
C         46.48415        52.23794        -1.03544
C         47.66396        54.28480        -0.16001
C         46.42078        55.09529        -0.46679
C         47.65396        57.24478        -0.38642
C         46.39439        56.48180        -0.24648
C         47.60238        58.72982        -0.20009
C         46.33140        59.35100         0.22945
C         47.56193        61.48476         0.63090
C         46.32594        60.79111         0.47494
C         48.92978        37.93600         0.93718
C         50.29498        39.96137         0.19165
C         48.99175        39.44523         0.82553
C         50.23843        41.47624         0.05995
C         48.96436        42.16171        -0.10319
C         50.20329        44.33608        -0.17591
C         48.95627        43.58371        -0.18562
C         50.21733        45.71730        -0.36597
C         48.93423        46.41297        -0.74873
C         50.18259        48.58142        -0.45592
C         48.97871        47.88405        -0.43432
C         50.17113        50.03072        -0.43968
C         49.00882        50.77317        -0.51082
C         50.12245        52.90670        -0.10232
C         49.00772        52.22670        -0.53571
C         50.14339        54.35690         0.05143
C         48.96921        55.05427        -0.10137
C         50.16584        57.27163         0.20699
C         48.97606        56.52195        -0.25651
C         50.09643        58.63701         0.41259
C         48.89633        59.45039         0.11229
C         50.02560        61.52918         0.86709
C         48.81957        60.85202         0.61116
C         51.40647        42.19280         0.11883
C         52.64875        44.33658         0.02747
C         51.44828        43.62729        -0.00504
C         52.69087        45.75244        -0.12268
C         51.44288        46.46658        -0.35277
C         52.76507        48.56787        -0.77367
C         51.44103        47.86442        -0.48796
C         52.75072        50.08162        -0.52257
C         51.44098        50.77951        -0.41603
C         52.62909        52.87317         0.45003
C         51.35172        52.14107         0.19671
C         52.59607        54.35247         0.42238
C         51.41321        55.04805         0.29584
C         52.53625        57.17140         0.85398
C         51.39036        56.51628         0.46113
C         52.52142        58.59962         1.20544
C         51.22328        59.35803         1.02656
C         52.50220        61.47531         1.02177
C         51.26771        60.83855         0.94432
C         53.88795        46.47096         0.03250
C         55.11676        48.59123         0.13041
C         53.95253        47.87873        -0.13086
C         55.19017        50.02564         0.16267
C         53.95457        50.79050         0.00167
C         55.12657        52.82529         0.77899
C         53.90947        52.12809         0.30361
C         55.11715        54.32525         0.91075
C         53.90739        55.10921         0.42195
C         55.05774        57.20824         1.08909
C         53.78390        56.40686         1.22622
C         55.01848        58.62895         1.04309
C         53.78552        59.35196         1.12523
C         54.97436        61.47807         0.84159
C         53.75424        60.76422         1.02959
C         56.37752        50.68919         0.43953
C         57.58870        52.81852         0.74378
C         56.42357        52.11658         0.64546
C         57.71433        54.30647         0.99287
C         56.39349        55.07846         1.01550
C         57.46794        57.33918         1.14588
C         56.30050        56.50284         1.11088
C         57.46349        58.68631         0.81647
C         56.22686        59.37476         0.84085
C         57.41571        61.47083         0.35294
C         56.18821        60.80303         0.70870
C         58.49443        54.94907        -0.14563
C         59.56445        57.17709        -0.84754
C         58.97781        56.22462         0.02578
C         59.59930        58.57446        -0.60957
C         58.79604        59.34103         0.47547
C         59.66436        61.46824        -0.57337
C         58.59087        60.79799         0.09377
C         60.48800        59.33215        -1.39006
C         60.59259        60.73677        -1.29043
O         38.73142        59.28331        -1.36254
O         42.13317        50.35646        -2.40960
O         44.39028        50.52354         0.62850
O         48.34867        59.40817        -1.25253
O         58.72307        56.77376         1.31976
O         39.56120        54.52421         1.13833
O         51.82670        52.28144         1.56587
O         44.62025        43.77326        -1.91732
O         30.42341        58.82113        -0.49006
O         51.63619        58.87653         2.35912
O         52.18355        50.79162        -1.69668
O         42.57673        53.94213        -2.14160
O         46.52929        51.25607        -2.14192
O         54.90514        53.47679         2.08750
O         48.42310        56.88339        -1.57752
O         43.48055        58.80479         2.19523
O         43.04405        37.72479         2.00155
O         34.99641        53.63711        -2.18816
O         41.05193        57.01609        -1.14205
O         47.63270        49.43069         0.97877
O         54.20450        55.44651        -0.95926
H         53.44239        55.94344        -1.32576
O         49.00332        39.99430         2.16114
H         48.08384        39.95906         2.51796
O         52.97156        48.38488        -2.20917
H         52.57045        49.17375        -2.64582
O         47.89017        39.35366        -1.28685
H         47.01345        39.42294        -1.74219
O         44.94457        35.91304         3.04064
H         44.10326        36.39729         3.20553
O         33.89052        59.75714        -2.09508
H         34.09538        58.90709        -2.55976
O         46.35117        40.09721         1.98110
H         45.56100        39.72972         2.43373
O         58.41940        54.45559         2.24631
H         57.84381        54.09333         2.95154
O         47.42608        53.77955         1.19154
H         47.43641        54.53158         1.81953
O         48.06202        53.43336        -2.36949
H         47.81675        52.68400        -2.95627
O         41.51097        60.62702         2.80523
H         42.30942        60.08053         3.00983
O         50.55965        39.35291        -1.07340
H         49.71389        39.34278        -1.58102
O         35.15649        57.34733        -2.47966
H         36.03156        57.61930        -2.83071
O         36.91400        52.00819        -2.46405
H         36.39408        52.70458        -2.93458
O         53.62650        56.04073         2.62068
H         53.37354        56.84532         3.12057
O         48.75585        46.26643        -2.18823
H         49.58251        46.55673        -2.62819
O         42.75829        56.31989         2.07631
H         43.29963        56.90437         2.65669
O         47.90660        45.98472         1.34882
H         47.13912        45.60891         1.82736
O         59.62534        59.35113         1.66653
H         59.72377        58.41104         1.94417
O         45.26710        39.40997        -1.47856
H         44.58323        39.87904        -2.00228
H         30.16996        56.50749         1.93249
H         28.58936        58.81841         2.32457
H         30.37935        62.42176         0.96702
H         28.60286        61.20441         1.92671
H         32.06912        52.43146         0.38047
H         30.96982        54.52183         0.88611
H         32.84341        62.51810         0.71587
H         34.39715        48.11292         0.09111
H         33.20239        50.29757         0.17491
H         35.26358        62.51717         0.64300
H         36.86496        43.80730         0.12821
H         35.63306        45.93813         0.09134
H         37.64292        62.50012         0.81032
H         39.28663        39.54628         0.22126
H         38.09197        41.67320         0.19040
H         40.05457        62.42368         1.40914
H         41.92017        35.08092         0.22597
H         40.60083        37.43403        -0.30495
H         42.61290        62.47294         0.84074
H         45.23688        31.96845         0.91956
H         43.13744        33.20038         0.51169
H         45.07509        62.54870         0.65783
H         47.37044        33.18791         1.28695
H         48.56860        35.23634         1.10271
H         47.52063        62.55655         0.87856
H         49.87221        37.38012         1.06084
H         51.14848        39.69733         0.86866
H         50.00931        62.61817         1.02654
H         52.35881        41.65893         0.26013
H         53.59436        43.79085         0.16542
H         52.53640        62.57453         0.97507
H         54.79273        45.93500         0.35895
H         56.02152        48.03210         0.41738
H         54.94541        62.57299         0.74649
H         57.31455        50.11782         0.51707
H         58.54378        52.27624         0.66616
H         57.36656        62.54999         0.13479
H         58.46949        54.48489        -1.14114
H         60.10063        56.80977        -1.73835
H         59.65518        62.56665        -0.63798
H         61.14266        58.80561        -2.10144
H         61.36775        61.25544        -1.87177
