         430
 CSIRO Nanostructure Databank - Neutral Graphene Oxide Data Set
C         28.92919        28.05425         3.61791
C         28.80373        29.37967         3.19281
C         27.82478        30.27128         3.78287
C         28.27441        31.91768         1.98693
C         27.62665        31.51315         3.29073
C         28.29730        33.40262         1.73135
C         27.15558        34.15402         2.02835
C         28.10842        36.10692         0.94496
C         27.06866        35.49436         1.66925
C         28.00416        37.50848         0.53070
C         26.80390        38.21096         0.59739
C         27.88248        40.28236        -0.09887
C         26.73876        39.56967         0.24491
C         27.78456        41.71059        -0.60014
C         26.65547        42.51911        -0.00606
C         27.90472        44.60107        -0.31296
C         26.70134        43.86675         0.03706
C         27.92709        45.99741        -0.36230
C         30.91575        27.73162         2.21998
C         29.94553        27.23940         3.11822
C         30.84302        29.10934         1.80480
C         29.74598        29.91080         2.24713
C         30.66178        31.87298         1.09143
C         29.61039        31.24696         1.79939
C         30.58025        33.25530         0.72833
C         29.37902        34.01037         1.04658
C         30.31251        35.96713        -0.25498
C         29.26922        35.36327         0.64774
C         30.38495        37.46928        -0.13943
C         29.18276        38.19185         0.08930
C         30.34161        40.28362        -0.50571
C         29.13106        39.59863        -0.15521
C         30.31074        41.74520        -0.62362
C         29.10415        42.44558        -0.53523
C         30.33557        44.58572        -0.70744
C         29.11458        43.87101        -0.52892
C         30.31659        46.00216        -0.86032
C         29.10525        46.68605        -0.67704
C         33.16946        24.76432         1.63975
C         32.09744        25.54837         2.08102
C         32.92114        27.43069         0.68982
C         31.97863        26.89533         1.73806
C         33.01900        28.93165         0.62392
C         31.86549        29.71018         1.01136
C         32.91289        31.75278         0.07187
C         31.82272        31.10449         0.73996
C         32.87589        33.11561        -0.17218
C         31.69791        33.89194         0.11717
C         32.80986        35.98247        -0.66437
C         31.65031        35.27495        -0.22296
C         32.76498        37.39481        -0.80068
C         31.56277        38.14196        -0.51755
C         32.74860        40.31158        -1.15729
C         31.53166        39.56795        -0.65739
C         32.79072        41.71453        -0.60986
C         31.53416        42.47218        -0.68253
C         32.82856        44.58443        -0.89990
C         31.57054        43.87059        -0.74514
C         32.80012        45.98312        -1.22009
C         31.54761        46.67669        -1.26404
C         32.63506        48.55979        -2.32973
C         31.49055        47.97531        -1.78817
C         35.49639        23.16889         0.82223
C         35.47538        24.57704         0.69785
C         34.28336        25.34144         0.98459
C         35.41696        27.39584         0.24332
C         34.25430        26.72655         0.67094
C         35.37963        28.80772        -0.04722
C         34.13349        29.52840         0.06122
C         35.34142        31.64765        -0.59143
C         34.02196        30.91569        -0.53168
C         35.33407        33.07314        -0.77330
C         33.99582        33.75627        -0.95894
C         35.27032        35.91972        -1.00465
C         34.05924        35.26169        -0.83490
C         35.29559        37.36875        -1.27263
C         33.97816        38.12733        -1.20331
C         35.27559        40.25592        -1.02866
C         34.05149        39.57906        -1.01192
C         35.31467        41.69354        -0.97636
C         34.08908        42.45520        -0.68362
C         35.29529        44.60132        -1.11600
C         34.05745        43.91044        -0.90611
C         35.31092        46.00445        -1.37981
C         34.01723        46.64633        -1.58320
C         35.82431        49.02029        -1.98505
C         33.85589        47.89657        -2.23330
C         35.85943        50.40987        -1.87369
C         37.83610        23.08722         0.13974
C         36.63836        22.44558         0.53906
C         37.85053        24.50895         0.02775
C         36.65828        25.25085         0.27613
C         37.84955        27.36867        -0.20448
C         36.64967        26.67534         0.10927
C         37.84171        28.79732        -0.33776
C         36.58096        29.50752        -0.29961
C         37.79869        31.68950        -0.54472
C         36.52993        30.92960        -0.52105
C         37.78110        33.02810        -1.24531
C         36.51575        33.79216        -0.94934
C         37.76074        35.93425        -1.10179
C         36.53420        35.22073        -1.03633
C         37.77422        37.37522        -1.08305
C         36.55312        38.11398        -1.11804
C         37.76647        40.24974        -0.97592
C         36.53820        39.52659        -1.06309
C         37.76055        41.67703        -0.95235
C         36.52222        42.40232        -1.00929
C         37.74910        44.54090        -1.00864
C         36.52041        43.85011        -1.03586
C         37.75485        45.97838        -0.98991
C         36.57443        46.71172        -1.27337
C         37.80056        48.80832        -0.61519
C         36.70115        48.16624        -1.28431
C         37.82312        50.23852        -0.45802
C         36.82564        51.01097        -1.06307
C         40.31354        20.23554         0.01653
C         39.09234        20.92778        -0.03539
C         40.21604        23.04827        -0.58769
C         39.02377        22.32071        -0.15990
C         40.26873        24.51023        -0.50367
C         39.06704        25.21971        -0.28590
C         40.29246        27.32563        -0.67194
C         39.07292        26.64434        -0.36242
C         40.29208        28.77116        -0.73309
C         39.07242        29.47001        -0.53033
C         40.31799        31.65449        -0.89678
C         39.09114        30.94074        -0.51781
C         40.29450        33.07349        -1.06915
C         39.05546        33.80870        -1.09659
C         40.25416        35.95493        -1.19646
C         39.03022        35.22162        -1.13833
C         40.25603        37.37164        -1.11894
C         39.00785        38.08421        -1.05592
C         40.24436        40.20405        -0.92081
C         39.01636        39.51495        -0.98544
C         40.23938        41.65539        -0.50453
C         38.98053        42.41528        -0.85677
C         40.26474        44.58394        -1.09623
C         38.97829        43.80499        -0.90399
C         40.20842        45.97378        -0.52906
C         38.97290        46.66235        -0.58715
C         40.06871        48.63544         0.52784
C         38.92617        48.03381        -0.24501
C         40.12129        50.13903         0.47262
C         38.97290        50.88749         0.17653
C         40.11023        52.92055         0.90607
C         38.98583        52.29154         0.41812
C         42.76637        20.30710         0.36746
C         41.54167        20.90244        -0.04844
C         42.79412        23.08997        -0.34089
C         41.58256        22.28402        -0.52320
C         42.76494        24.48303        -0.59409
C         41.49981        25.19210        -0.70896
C         42.73647        27.28761        -1.35924
C         41.49006        26.60178        -0.84599
C         42.75544        28.78637        -1.11191
C         41.51850        29.48177        -0.92214
C         42.75374        31.62841        -1.07252
C         41.51920        30.92344        -0.97010
C         42.74646        33.05709        -1.10991
C         41.51878        33.75874        -1.20219
C         42.78237        35.91061        -1.12756
C         41.52349        35.21459        -1.57386
C         42.76445        37.38966        -1.23103
C         41.48161        38.11490        -1.10789
C         42.74567        40.26091        -0.74450
C         41.48798        39.51702        -0.97904
C         42.72933        41.63273        -0.56115
C         41.49500        42.38205        -0.98524
C         42.78959        44.57307        -0.85964
C         41.48237        43.84480        -0.51962
C         42.70969        45.99962        -0.35648
C         41.43361        46.63817        -0.19157
C         42.59258        48.66687         0.56682
C         41.39945        47.98075         0.25819
C         42.55306        50.05905         0.96263
C         41.32008        50.78888         0.87233
C         42.51533        52.83756         1.51202
C         41.31329        52.19389         1.10144
C         43.93093        21.03690         0.41088
C         45.19652        23.18546         0.17267
C         43.97600        22.43475         0.09239
C         45.20734        24.56394        -0.20270
C         43.98912        25.22541        -0.55148
C         45.22835        27.29817        -0.97606
C         44.01597        26.61029        -0.89650
C         45.21333        28.67796        -1.60933
C         43.96391        29.47414        -1.22527
C         45.19387        31.65559        -1.12001
C         43.98493        30.91390        -1.14332
C         45.20138        33.06513        -0.96475
C         43.97917        33.77407        -1.00090
C         45.17982        35.91317        -0.37901
C         43.94365        35.22134        -0.90583
C         45.26263        37.38554        -0.67090
C         44.04137        38.13635        -0.99067
C         45.21518        40.24774        -0.44397
C         43.99993        39.56210        -0.65298
C         45.21372        41.64915        -0.19240
C         43.90479        42.35983         0.03707
C         45.17662        44.50364        -0.17533
C         43.98247        43.83289        -0.28902
C         45.21492        46.01210        -0.40261
C         43.89088        46.67342        -0.06538
C         45.05375        48.67226         0.85694
C         43.84995        48.00694         0.43222
C         44.99288        50.00328         1.34139
C         43.73909        50.73126         1.31901
C         43.68459        52.12618         1.62524
C         47.60019        23.27464         0.55852
C         46.41210        22.57966         0.58498
C         47.65847        24.62068         0.11572
C         46.44292        25.28335        -0.23917
C         47.72638        27.33062        -0.77158
C         46.46067        26.64936        -0.66122
C         47.76863        28.72769        -1.06687
C         46.52430        29.44857        -1.43074
C         47.68852        31.64550        -0.74117
C         46.47680        30.93780        -1.24574
C         47.70746        33.11006        -0.83816
C         46.46543        33.80499        -0.85348
C         47.69481        35.91057        -0.57989
C         46.46679        35.19416        -0.68632
C         47.70290        37.33671        -0.43506
C         46.45256        38.06689        -0.51293
C         47.69444        40.18958        -0.42228
C         46.47657        39.51804        -0.48629
C         47.68377        41.66782        -0.48734
C         46.42035        42.38572        -0.17783
C         47.69245        44.59417        -0.28597
C         46.42060        43.78864        -0.07946
C         47.59424        45.93415         0.40055
C         46.39843        46.63583         0.31945
C         47.45254        48.57067         1.42903
C         46.29977        47.95918         0.86751
C         47.36182        49.90947         1.89662
C         46.17760        50.60680         1.83918
C         50.14467        24.69295         0.38144
C         48.91521        25.31017        -0.00845
C         50.26068        27.27275        -0.82702
C         48.93439        26.63800        -0.48763
C         50.21873        28.77129        -0.80549
C         48.99668        29.43692        -0.96984
C         50.22684        31.68402        -0.91217
C         48.99347        30.90552        -0.73985
C         50.20044        33.06740        -0.86785
C         48.93632        33.78769        -0.75993
C         50.16445        35.91984        -0.51941
C         48.93226        35.20795        -0.65796
C         50.13983        37.29640        -0.25475
C         48.92194        38.02874        -0.28338
C         50.16487        40.17198        -0.14574
C         48.94434        39.48719        -0.27392
C         50.30474        41.66404        -0.44209
C         48.98216        42.42116        -0.44428
C         49.98005        44.33881         0.77850
C         48.93287        43.80870         0.06715
C         49.92572        45.71025         1.26724
C         48.73861        46.48494         1.06874
C         49.83085        48.37639         2.16294
C         48.67847        47.82158         1.55152
C         51.34286        25.39129         0.40473
C         52.63443        27.49066         0.05940
C         51.43967        26.71477        -0.06197
C         52.62798        28.88604        -0.33358
C         51.44979        29.49788        -0.74122
C         52.74361        31.66074        -1.29478
C         51.42787        30.88038        -1.36259
C         52.71161        33.17889        -1.25607
C         51.42069        33.85783        -0.97875
C         52.68048        36.02093        -0.89469
C         51.41318        35.21066        -0.71756
C         52.66444        37.33582        -0.17026
C         51.37191        37.96509         0.27276
C         52.58071        40.11199         0.37589
C         51.38021        39.46597         0.10484
C         52.69639        41.61829         0.39605
C         51.35234        42.30019         0.44074
C         52.25311        44.11749         1.81695
C         51.19847        43.54887         1.01068
C         52.19748        45.44112         2.26520
C         51.03245        46.26736         1.94258
C         50.96935        47.62264         2.35284
C         55.05113        27.62403         0.51480
C         53.84635        26.91525         0.51370
C         55.10758        28.97444         0.15859
C         53.81998        29.74489         0.02689
C         55.17248        31.69835        -0.72525
C         53.96719        31.02095        -0.76985
C         55.27050        33.13979        -1.23242
C         53.97430        33.89319        -0.96209
C         55.16857        35.93915        -0.30792
C         53.95566        35.23280        -0.65855
C         55.12967        37.30534         0.03328
C         53.84355        37.98436         0.11994
C         54.96207        40.01552         1.01137
C         53.80020        39.37337         0.55069
C         54.82091        41.32853         1.65604
C         53.64948        42.03678         1.47902
C         54.54500        43.89246         2.88559
C         53.31956        43.19967         2.35832
C         54.42220        45.22216         3.31646
C         53.27463        45.96268         3.04834
C         56.32915        29.68451         0.08196
C         56.35370        31.01702        -0.27638
C         56.45764        33.88495        -0.68542
C         56.39383        35.16938        -0.27295
C         56.28978        38.04219         0.43043
C         56.20462        39.32133         0.93596
C         55.84825        41.86461         2.51368
C         55.73037        43.13219         3.04984
O         33.52218        41.96116         0.62188
O         38.50915        31.58276         0.71812
O         48.29811        42.22572        -1.74514
O         48.24804        31.17610         0.52797
O         52.85863        32.44493        -2.54659
O         43.56194        37.85272        -2.39795
O         40.87538        22.51209        -1.77171
O         46.72348        30.36142        -2.58744
O         34.54884        37.70122        -2.50745
O         34.92945        48.48071        -2.91529
O         45.08972        28.42355        -3.04646
H         45.48825        29.20602        -3.49871
O         37.69861        32.68269        -2.67911
H         37.86255        33.50147        -3.19387
O         47.76874        44.87528        -1.73328
H         47.89213        43.99135        -2.16516
O         27.46688        41.58166        -2.03324
H         27.44554        42.48748        -2.40857
O         53.32787        42.02745        -0.86126
H         52.65132        41.89670        -1.56969
O         40.28862        41.59511         0.95220
H         39.43724        41.22469         1.26556
O         29.80937        35.72354        -1.63281
H         30.49447        36.05157        -2.25408
O         32.56804        40.49055        -2.60595
H         32.69622        39.61621        -3.03314
O         52.68076        42.59107         3.57683
H         52.57307        43.31958         4.22646
O         33.64148        33.49813        -2.37910
H         34.31480        33.94696        -2.93506
O         45.38509        46.19760        -1.84549
H         46.27645        45.80969        -2.06618
O         27.40225        31.36885         0.92939
H         27.41773        30.39195         1.01968
O         51.16824        30.58590        -2.77350
H         51.49888        31.36110        -3.28628
O         45.03109        35.83152         1.09333
H         45.87598        36.13205         1.49210
O         51.29617        37.73571         1.73695
H         52.04356        38.22514         2.14455
O         53.51492        30.21038         1.40899
H         53.52613        29.41596         1.98546
O         43.64236        42.31813         1.52729
H         44.40107        42.76782         1.95921
O         41.55672        35.25232        -3.05509
H         41.89439        36.13696        -3.31738
O         50.51488        26.90625        -2.24827
H         51.12517        27.58121        -2.61723
O         42.67896        27.11821        -2.81071
H         43.50686        27.52224        -3.17810
O         41.34445        43.91184         0.91009
H         41.97408        43.26757         1.32005
O         52.72347        36.37245        -2.32585
H         52.96260        35.56072        -2.82338
O         43.01341        44.59627        -2.29989
H         43.80938        45.17168        -2.44375
O         41.47374        42.34511        -2.44084
H         42.27032        42.84338        -2.74867
O         40.37318        44.76348        -2.53251
H         40.54802        43.86950        -2.91690
O         55.46290        33.08683        -2.67856
H         54.62658        32.72012        -3.05645
O         32.27971        27.07285        -0.60347
H         32.78580        27.52604        -1.31266
O         39.76786        48.32147         1.94874
H         38.91216        48.75003         2.16478
O         33.61818        30.68977        -1.92787
H         33.52262        31.58688        -2.33869
O         50.82069        41.72418        -1.81307
H         50.02927        41.68163        -2.40158
H         28.21848        27.65076         4.35340
H         27.27558        29.92308         4.67086
H         26.89233        32.18098         3.76329
H         26.30151        33.68033         2.53098
H         26.16316        36.05849         1.92901
H         25.87597        37.70379         0.89377
H         25.75612        40.06000         0.24883
H         25.72256        42.00687         0.26928
H         25.82712        44.44275         0.37757
H         27.00130        46.56105        -0.17699
H         29.99388        26.19802         3.46222
H         29.06980        47.78163        -0.74856
H         33.18617        23.70338         1.92162
H         31.35086        25.07269         2.73205
H         32.58312        49.52525        -2.84862
H         30.53368        48.50861        -1.85661
H         34.59006        22.62791         1.12433
H         35.14606        51.01945        -2.44237
H         36.60516        21.35201         0.62839
H         36.83915        52.10525        -0.98426
H         40.30263        19.16371         0.26290
H         38.17777        20.35270         0.16352
H         40.09506        54.00063         1.11103
H         38.08018        52.88723         0.24326
H         42.76920        19.24828         0.66439
H         42.50136        53.91803         1.71544
H         44.84904        20.52793         0.73101
H         44.59815        52.65914         1.91915
H         48.51538        22.75319         0.86605
H         46.42512        21.53329         0.91542
H         48.24425        50.40986         2.31531
H         46.15641        51.63604         2.21945
H         50.14464        23.66233         0.75824
H         49.82847        49.41651         2.51293
H         52.22043        24.89255         0.83988
H         51.83094        48.09482         2.84149
H         55.98349        27.09656         0.76612
H         53.87384        25.85326         0.79039
H         55.26273        45.69941         3.84233
H         53.23521        46.99779         3.41021
H         57.26864        29.15706         0.30445
H         57.31951        31.53701        -0.29321
H         57.44069        33.39526        -0.72248
H         57.31748        35.65959         0.06601
H         57.28046        37.57300         0.35944
H         57.12637        39.82978         1.25204
H         56.77460        41.29503         2.67091
H         56.57878        43.58073         3.58855
