         324
 CSIRO Nanostructure Databank - Neutral Graphene Oxide Data Set
C          1.07651         3.67496         0.77318
C         -0.11124         4.32002         0.46120
C          1.08498         6.39768        -0.03017
C         -0.11872         5.66425         0.07203
C          1.10437         7.78219        -0.44489
C         -0.11368         8.55484        -0.39363
C          1.01280        10.61543        -1.14809
C         -0.15366         9.89079        -0.62860
C          1.09559        12.08810        -1.02344
C         -0.11774        12.87083        -0.84736
C          1.09016        14.95848        -1.32838
C         -0.14923        14.21606        -0.99307
C          1.14832        16.46291        -1.52802
C         -0.09836        17.24290        -1.24744
C          0.72126        19.57415        -1.33049
C         -0.29796        18.58204        -1.07776
C          0.94594        20.84452        -0.82238
C         -0.18194        21.69636        -0.54774
C          1.22760        23.57381        -1.16413
C         -0.06272        23.02189        -0.86277
C          1.29604        25.69924        -0.56968
C          0.12458        26.39750        -0.23315
C          1.34467        27.51742         1.52499
C          0.13160        27.26178         0.85093
C          1.39473        28.49690         2.57158
C          3.51147         3.67590         0.99261
C          2.32016         4.36737         0.71913
C          3.53895         6.43742         0.06236
C          2.31978         5.75186         0.28925
C          3.55255         7.71811        -0.53977
C          2.32897         8.41183        -0.75699
C          3.59320        10.61481        -1.18084
C          2.34202         9.82259        -1.22726
C          3.56842        11.99835        -1.18486
C          2.31960        12.72748        -1.10279
C          3.63763        14.93410        -0.79032
C          2.34032        14.21042        -0.93593
C          3.67072        16.39977        -1.02748
C          2.50341        17.09545        -1.38970
C          3.75800        19.22342        -1.19333
C          2.65733        18.47210        -1.60110
C          3.63498        20.68576        -0.90746
C          2.32953        21.44780        -0.75289
C          3.67958        23.64431        -0.63417
C          2.42116        22.93358        -0.88695
C          3.70119        24.98933        -0.10548
C          2.50957        25.80327         0.14203
C          3.78687        27.28874         1.64988
C          2.54033        26.84199         1.12835
C          3.81753        28.33459         2.61879
C          2.58800        28.87869         3.11709
C          6.05542         3.62848         1.11984
C          4.78801         4.34856         1.07961
C          6.09302         6.28803         0.01106
C          4.79442         5.82436         0.53753
C          6.12754         7.66737        -0.63222
C          4.82534         8.35482        -0.94979
C          6.14504        10.55363        -1.03566
C          4.86575         9.85353        -1.23782
C          6.17821        11.99991        -1.25497
C          4.84028        12.76935        -1.32151
C          6.12154        14.86163        -0.87779
C          4.90974        14.19464        -0.97508
C          6.11235        16.32291        -0.57881
C          4.89213        17.09229        -0.88735
C          6.20672        19.23414        -0.88111
C          4.95231        18.51239        -0.92830
C          6.19560        20.69920        -1.13257
C          4.89044        21.47940        -1.14284
C          6.15930        23.52312        -0.49641
C          4.90262        22.91330        -0.74650
C          6.16940        24.85564         0.03796
C          4.95559        25.54169         0.32481
C          6.22685        27.40232         1.45339
C          5.00117        26.75702         1.12670
C          6.26807        28.45119         2.46061
C          5.05416        28.83584         3.05484
C          8.50341         3.64914         1.38721
C          7.30481         4.27692         0.99605
C          8.50555         6.37170         0.44544
C          7.33872         5.66666         0.53420
C          8.46843         7.87798         0.36232
C          7.33682         8.46440        -0.45123
C          8.56662        10.61588        -0.52600
C          7.31147         9.87068        -0.63155
C          8.60125        11.99787        -0.73761
C          7.40211        12.75455        -0.94464
C          8.63469        14.91396        -0.80298
C          7.38467        14.16184        -0.90368
C          8.65844        16.32762        -0.75323
C          7.41738        17.09421        -0.53438
C          8.67202        19.26178        -0.93497
C          7.41044        18.55916        -0.78031
C          8.68855        20.67786        -1.04684
C          7.46730        21.44081        -0.94228
C          8.66197        23.68216        -0.78341
C          7.41406        22.81550        -0.69627
C          8.66054        24.84485         0.18154
C          7.41542        25.49385         0.37397
C          8.66630        27.45970         1.01171
C          7.41941        26.80699         0.91316
C          8.68348        29.16160         2.43081
C          7.45213        29.05294         3.05409
C         11.06540         3.70281         1.67688
C          9.80518         4.23450         1.10825
C         11.00872         6.51467         0.80280
C          9.79718         5.69957         0.61727
C         11.01996         7.84427         0.44246
C          9.79236         8.52541         0.05968
C         11.03013        10.62824        -0.02761
C          9.78240         9.87083        -0.24489
C         11.06562        12.08658        -0.24290
C          9.90883        12.71211        -0.98647
C         11.08408        14.90851        -0.77604
C          9.86924        14.21139        -0.80558
C         11.10413        16.31592        -0.88202
C          9.87658        17.04612        -0.85897
C         11.14721        19.14189        -0.96343
C          9.88319        18.48428        -0.91684
C         11.20581        20.54544        -1.13625
C          9.98632        21.37975        -1.18985
C         11.16697        23.47470        -0.13536
C          9.99042        22.92077        -0.86725
C         11.05897        24.59656         0.82606
C          9.83474        25.41767         0.70225
C         11.03218        27.33503         1.96172
C          9.87126        26.76869         1.12615
C         11.10913        28.84697         2.21425
C          9.99853        29.49067         2.85526
C         13.49150         3.85359         2.07700
C         12.22061         4.44515         1.74360
C         13.51477         6.41408         0.94274
C         12.18285         5.95858         1.57505
C         13.53793         7.86137         0.52869
C         12.30110         8.55368         0.32345
C         13.50683        10.52708        -0.57223
C         12.30442         9.90392         0.00591
C         13.61994        11.99555        -0.70848
C         12.40539        12.75930        -0.33843
C         13.64922        14.87470        -0.97272
C         12.38699        14.22044        -0.58226
C         13.63772        16.26181        -1.01136
C         12.37205        16.99358        -0.93094
C         13.67580        19.04704        -0.63588
C         12.36860        18.37977        -0.93140
C         13.67515        20.48240        -1.01480
C         12.50712        21.10367        -1.34398
C         13.62686        23.24648         0.38563
C         12.42903        23.05457        -0.43815
C         13.67607        24.55758         1.13404
C         12.34730        25.25935         1.31572
C         13.53288        27.40704         1.46501
C         12.35695        26.71724         1.54113
C         13.51146        28.86433         1.57533
C         12.32895        29.49560         2.08726
C         15.95500         3.92196         2.28853
C         14.70622         4.54435         2.05681
C         16.00858         6.62548         1.34003
C         14.70132         6.04211         1.82648
C         16.01274         7.90486         0.70906
C         14.77218         8.47423         0.27787
C         16.08500        10.40887        -0.79338
C         14.79249         9.71147        -0.51515
C         16.06194        11.87887        -1.19565
C         14.79331        12.64565        -1.04328
C         16.07355        14.77880        -1.39843
C         14.85962        14.11087        -1.12953
C         16.12060        16.21318        -1.39425
C         14.89453        16.95560        -1.17713
C         16.12390        19.08260        -1.43924
C         14.89572        18.34256        -1.17928
C         16.17280        20.63836        -1.14076
C         14.90876        21.19664        -0.59861
C         16.20318        23.24720         0.38186
C         14.90888        22.51402         0.11311
C         16.15675        24.72575         0.63192
C         14.96358        25.30342         1.05417
C         16.05563        27.58552         0.80854
C         14.86470        26.74612         1.30893
C         15.72454        28.99343         0.45720
C         14.56709        29.60136         1.06744
C         18.42912         3.98368         2.39434
C         17.17462         4.63051         2.18461
C         18.44501         6.80698         1.82778
C         17.18275         6.00085         1.73579
C         18.47108         8.03579         0.95409
C         17.26495         8.60357         0.48518
C         18.51636        10.58788        -0.30822
C         17.31385         9.85714        -0.19952
C         18.51713        11.93454        -0.89926
C         17.35284        12.60890        -1.18012
C         18.59804        14.74489        -1.89313
C         17.27760        13.95954        -1.87818
C         18.61536        16.23373        -1.68728
C         17.34183        16.94320        -1.45474
C         18.61518        19.08838        -1.24193
C         17.39431        18.36114        -1.38156
C         18.62632        20.51399        -0.96754
C         17.42854        21.23293        -0.76516
C         18.67674        23.36980        -0.22614
C         17.45650        22.55446        -0.07230
C         18.63422        24.76814         0.04971
C         17.36547        25.50471         0.34704
C         18.20385        27.77912        -0.49256
C         17.24502        26.89564         0.25757
C         17.75029        29.17050        -0.96498
C         16.48215        29.69571        -0.43747
C         19.63947         4.63007         2.14880
C         20.90917         6.66227         1.48831
C         19.69928         5.98308         1.76839
C         20.92240         7.98184         1.06993
C         19.71110         8.69459         0.74847
C         20.95221        10.76377         0.08825
C         19.72731        10.00643         0.17409
C         21.02025        11.95954        -0.54909
C         19.84156        12.54838        -1.19756
C         21.09664        14.80617        -1.51855
C         19.89162        13.99575        -1.71111
C         21.07037        16.16815        -1.34341
C         19.87578        16.93929        -1.36481
C         21.05294        19.08391        -0.93836
C         19.86085        18.35746        -1.18711
C         21.05493        20.46064        -0.74503
C         19.86583        21.20956        -0.74030
C         21.09347        23.36941        -0.49977
C         19.87552        22.65750        -0.50490
C         21.10152        24.70982        -0.14974
C         19.90527        25.38770         0.12931
C         20.54877        28.62665        -0.71049
C         19.65209        27.68507        -0.28466
C         20.09661        29.86323        -1.28153
C         18.77211        30.16639        -1.32043
O          4.79940         5.56677         1.94979
O         16.14373        10.80940        -2.19342
O         14.92433        21.25680         0.86497
O         20.10368        26.69603         0.58306
O         10.13282        22.42613        -2.22317
O         20.04892        12.86497        -2.62062
O         17.72956        27.99798        -1.86383
O          1.52701        10.08743        -2.40817
O          9.99538         4.59765        -0.32459
O         12.63349        22.46078        -1.68951
O          6.72309        16.68639         0.70346
O          3.07807        20.93390         0.43040
O          6.20445         6.41790        -1.43799
O         13.55844        23.30055         1.84727
O         18.65952        15.61891        -3.06684
O         15.85546        27.28618         2.22741
O         16.05230        20.11500        -2.48409
O          1.07426        15.53938        -2.67512
O         12.57429        13.67884         0.79796
O          4.82966         8.85202        -2.32425
O         10.79717        11.61011         1.09993
O         17.02888        22.52696         1.35351
O          1.66123        19.15893        -2.27898
O          1.24650        24.87571        -1.70093
O          5.57597        12.42680        -2.53517
O          5.52931        21.11196        -2.39965
O         13.95743         9.69872        -1.70496
O          8.67130        28.84431         1.05237
O          2.84209        14.57639         0.40861
O         11.47980        24.46797         2.22162
O         10.76487        26.82021         3.30219
H         10.90513        25.83948         3.27066
O         16.96996        13.64259        -3.25998
H         17.40525        14.32972        -3.81556
O         10.22633        12.48855        -2.40026
H          9.45228        12.76298        -2.93669
O         13.68713         5.64531        -0.27588
H         12.97407         5.89041        -0.90277
O         18.41473         7.34893         3.22525
H         19.26983         7.81180         3.36289
O         14.55413         6.67937         3.13888
H         15.37842         6.51036         3.64449
O         11.97206         6.51309         2.89711
H         12.83682         6.53191         3.37491
O         13.82857        18.95928         0.82707
H         13.71936        18.01830         1.08194
O          8.51507        24.35832        -2.07819
H          8.81140        23.71530        -2.76439
O          8.17198         8.28274         1.76051
H          8.45507         9.21627         1.87330
H          1.06966         2.61797         1.07475
H         -1.06067         3.76882         0.51132
H         -1.07648         6.12949        -0.19492
H         -1.02606         8.06608        -0.02609
H         -1.07992        10.44065        -0.41342
H         -1.06213        12.34271        -0.65903
H         -1.11468        14.73824        -0.94632
H         -0.98358        16.61574        -1.06146
H         -1.27949        18.91382        -0.70367
H         -1.16740        21.24628        -0.35998
H         -0.93911        23.68267        -0.89030
H         -0.78194        26.24553        -0.83313
H         -0.78097        27.79753         1.14747
H          0.45313        28.95561         2.90648
H          3.48660         2.57960         1.08042
H          2.62759        29.64797         3.90144
H          6.02874         2.54286         1.29528
H          5.06592        29.60747         3.83904
H          8.45522         2.72179         1.97715
H          7.34265        29.43195         4.08167
H         11.09062         2.63350         1.94398
H         10.18281        30.26550         3.61615
H         13.51172         2.76881         2.27319
H         12.37850        30.57505         2.29801
H         15.98309         2.84791         2.52958
H         14.47994        30.69707         1.01801
H         18.43281         2.92596         2.69485
H         16.22993        30.74476        -0.65428
H         20.57828         4.06185         2.23446
H         21.86112         6.11940         1.58940
H         21.89381         8.45437         0.87405
H         21.86794        10.35302         0.53429
H         21.98829        12.46950        -0.64549
H         22.06858        14.29583        -1.55531
H         22.03317        16.67839        -1.20337
H         22.01480        18.55685        -0.89343
H         22.01903        20.95154        -0.55699
H         22.04206        22.87158        -0.73676
H         22.04698        25.26301        -0.08110
H         21.61559        28.49183        -0.49129
H         20.84554        30.61237        -1.57322
H         18.43491        31.17718        -1.59111
