         324
 CSIRO Nanostructure Databank - Neutral Graphene Oxide Data Set
C          1.62982         1.97582         2.29839
C          1.54282         3.34381         2.17401
C          2.82579         1.25918         2.04345
C          2.73536         4.16639         2.01734
C          1.45189         6.34020         1.84924
C          1.43388         7.73121         1.76143
C          2.64979         5.60123         1.60276
C          2.51530         8.45587         1.23353
C          1.62655        10.57864         2.11662
C          1.80694        11.90685         2.45806
C          2.60819         9.89442         1.35560
C          2.92109        12.60978         1.98264
C          1.91426        15.81454         2.04897
C          1.86491        17.02849         1.38165
C          2.98672        14.96385         1.77391
C          2.91377        17.41174         0.52154
C          2.82093        18.75483        -0.02184
C          3.96695         1.91223         1.57523
C          4.03008         3.37944         1.65109
C          5.08966         1.22308         1.03947
C          5.05601         4.06935         0.86447
C          3.75153         6.26270         1.08349
C          3.51902         7.62965         0.45437
C          5.02977         5.55961         0.85532
C          4.76436         8.42314         0.04639
C          3.70902        10.64904         0.83607
C          3.85362        12.04066         1.07818
C          4.79699         9.93805         0.13510
C          5.00169        12.81906         0.55642
C          4.00905        15.24792         0.84337
C          4.02063        16.55335         0.25048
C          5.06315        14.21687         0.68921
C          5.03670        17.11185        -0.72907
C          3.85892        19.34343        -0.66449
C          5.06564        18.59909        -0.91833
C          6.15594         1.90323         0.44420
C          6.06326         3.34695         0.27151
C          7.34433         1.19733         0.05272
C          7.10544         4.02816        -0.54274
C          6.15141         6.29254         0.19982
C          6.05710         7.73609        -0.12119
C          7.17871         5.52311        -0.56686
C          7.18354         8.42289        -0.50177
C          6.08638        10.63184        -0.06829
C          6.10139        12.06704        -0.07171
C          7.18753         9.86618        -0.52301
C          7.07170        12.64043        -0.95952
C          6.55225        15.05430        -0.67777
C          6.25162        16.39278        -1.23745
C          7.02664        14.01399        -1.41344
C          7.38753        17.16703        -2.00770
C          6.21258        19.26483        -1.27484
C          7.46853        18.60249        -1.52176
C          8.47485         1.84175        -0.43440
C          8.37786         3.28305        -0.78380
C          9.72246         1.19113        -0.68756
C          9.64245         4.08599        -0.79458
C          8.46489         6.24657        -0.78991
C          8.37120         7.71498        -1.15110
C          9.63924         5.57433        -0.80378
C          9.69151         8.45817        -1.01207
C          8.34439        10.51739        -1.05961
C          8.08504        11.81378        -1.50562
C          9.65932         9.87951        -1.14575
C          9.98665        12.88515        -1.89208
C          8.81434        15.09036        -2.21267
C          8.72959        16.45814        -1.93475
C          9.97861        14.33822        -1.88111
C          9.92417        17.16707        -1.62639
C          8.65596        19.28098        -1.41970
C          9.93201        18.60471        -1.46675
C         10.92556         1.90458        -0.81773
C         10.88594         3.35050        -0.45023
C         12.18525         1.28957        -1.00617
C         12.11921         4.14490        -0.23292
C         10.97567         6.25595        -1.06332
C         10.90426         7.76800        -0.91136
C         12.06800         5.61970        -0.24782
C         12.11670         8.50583        -0.74754
C         10.88810        10.62246        -1.16839
C         10.94876        12.08569        -1.30860
C         12.11080         9.92444        -0.89274
C         12.16286        12.78971        -0.82183
C         11.10594        15.04044        -1.43142
C         11.13775        16.45589        -1.43629
C         12.25333        14.29375        -0.90345
C         12.37812        17.15213        -1.20997
C         11.13396        19.27802        -1.29410
C         12.39018        18.58647        -1.21226
C         13.39860         2.00601        -0.94848
C         13.38816         3.52467        -0.93275
C         14.64315         1.36586        -1.08333
C         14.59613         4.09009        -0.18567
C         13.29373         6.37139        -0.07966
C         13.34437         7.80873        -0.44158
C         14.61205         5.58403        -0.04118
C         14.56749         8.47660        -0.35174
C         13.38135        10.63849        -0.78457
C         13.41677        12.02505        -0.84684
C         14.60606         9.92035        -0.46611
C         14.67774        12.75956        -0.92266
C         13.56470        14.97948        -0.95884
C         13.59047        16.43089        -1.06951
C         14.71423        14.24327        -0.90683
C         14.82717        17.12450        -1.02502
C         13.61709        19.26746        -1.10723
C         14.85203        18.56546        -1.03873
C         15.90792         1.96422        -0.80442
C         15.88442         3.32782        -0.16290
C         17.07851         1.25759        -1.13003
C         17.10615         4.18264        -0.03033
C         15.82366         6.29737        -0.60259
C         15.82265         7.76290        -0.23944
C         17.08324         5.56657        -0.19663
C         17.01971         8.41787        -0.00738
C         15.76906        10.59767        -0.11110
C         15.93029        12.00610        -0.47347
C         16.97414         9.86238         0.33658
C         16.97192        12.87672         0.21649
C         16.02360        14.92806        -0.99430
C         16.06028        16.40352        -0.96136
C         17.24751        14.17940        -0.53355
C         17.28399        17.06326        -0.87844
C         16.09982        19.22885        -0.99260
C         17.33288        18.51360        -0.95488
C         18.37701         1.56287        -0.60034
C         18.35235         3.54261         0.22868
C         19.64875         1.33692        -1.10674
C         19.58968         4.12748        -0.01933
C         18.29886         6.32395        -0.10903
C         18.28013         7.71409        -0.00750
C         19.57987         5.59135        -0.21775
C         19.55435         8.48460         0.00388
C         18.24216        10.62622         0.57476
C         18.25590        12.13295         0.58947
C         19.54474         9.97006         0.22739
C         19.56646        12.84895         0.57026
C         18.48730        14.93993        -0.26712
C         18.52442        16.33727        -0.63991
C         19.63881        14.26041         0.12086
C         19.74346        16.98934        -0.71490
C         18.56886        19.15912        -1.05021
C         19.85685        18.40518        -1.23237
C         20.84278         2.02926        -0.64996
C         20.79728         3.36903        -0.15783
C         22.11341         1.42758        -0.94640
C         22.06576         4.06800         0.15151
C         20.86264         6.34802         0.00486
C         20.83079         7.79347         0.24068
C         22.07478         5.56458         0.36701
C         22.03737         8.50024         0.40866
C         20.81737        10.67581         0.54104
C         20.83676        12.08146         0.59894
C         22.03299         9.95896         0.56229
C         22.04969        12.79046         0.75037
C         20.91835        14.88464         0.06441
C         20.97925        16.24130        -0.48277
C         22.09019        14.22999         0.50479
C         22.28134        17.02309        -0.26367
C         21.01763        19.14047        -0.60364
C         22.17938        18.50307        -0.19021
C         23.35120         2.05252        -0.76660
C         23.38410         3.40342        -0.17128
C         24.60835         1.44871        -1.03753
C         24.61248         4.20978        -0.30467
C         23.35207         6.34887         0.27333
C         23.26551         7.81900         0.22094
C         24.55100         5.70936        -0.40882
C         24.50680         8.57716         0.13303
C         23.23762        10.66279         0.81852
C         23.24455        12.06029         0.98344
C         24.50463         9.89088         0.84698
C         24.47404        12.78432         1.41072
C         23.31138        14.95278         0.66706
C         23.37420        16.33274         0.43437
C         24.38457        14.31781         1.53118
C         24.55177        17.10090         0.73362
C         23.33702        19.20497         0.23469
C         24.54712        18.52900         0.53956
C         25.81894         2.13073        -0.81651
C         25.81260         3.55871        -0.51296
C         27.07811         1.48977        -0.97874
C         27.06333         4.28375        -0.41151
C         25.85076         6.39840        -0.09285
C         25.84486         7.85118         0.01632
C         27.06001         5.70279        -0.12685
C         27.09272         8.54613         0.37310
C         25.81367        10.56811         1.10057
C         25.79561        12.03904         1.41173
C         27.09065         9.92447         0.69291
C         27.08612        12.75708         1.28322
C         25.76079        15.00290         1.43882
C         25.76505        16.43861         1.04022
C         27.06718        14.23726         1.42727
C         26.97848        17.13143         0.91098
C         25.76536        19.23931         0.67127
C         26.99020        18.55925         0.78195
C         28.28098         2.18228        -0.83072
C         28.27960         3.59975        -0.54187
C         29.54675         1.51152        -0.96190
C         29.52348         4.30342        -0.38952
C         28.30472         6.41542         0.01885
C         28.31182         7.82469         0.28050
C         29.53536         5.70888        -0.11285
C         29.54986         8.53739         0.40641
C         28.29700        10.64393         0.81377
C         28.26555        12.07861         1.08246
C         29.54187         9.95340         0.62834
C         29.57355        12.80518         1.35232
C         28.31396        14.94592         1.03939
C         28.23465        16.38699         0.73726
C         29.51484        14.28476         1.00727
C         29.54063        17.18259         0.71026
C         28.23388        19.27557         0.88773
C         29.45727        18.63272         0.97103
C         30.72481         2.18747        -0.81024
C         30.74585         3.59683        -0.52170
C         31.96599         4.29819        -0.37032
C         30.77900         6.40144         0.01698
C         30.78264         7.83075         0.25779
C         31.97923         5.65865        -0.11112
C         31.98686         8.56969         0.32266
C         30.78056        10.67246         0.64609
C         30.79450        12.10963         0.79035
C         31.98232         9.94374         0.49423
C         31.92636        12.86486         0.54502
C         30.77441        15.00516         0.87166
C         30.78997        16.45493         0.98532
C         31.94168        14.27603         0.68018
C         31.90405        17.18645         1.35410
C         30.67624        19.30796         1.30640
C         31.84605        18.60560         1.48125
O         18.80309        12.66543         1.84284
O          9.05187         3.57020        -2.04225
O         20.40506         6.00749        -1.36720
O          6.18722         6.09586         1.65917
O         14.97850         3.37991         1.01364
O         25.17212         8.54358        -1.18027
O         21.97211        16.43983        -1.57291
O         15.64976        12.20611        -1.87965
O         25.06870        12.28131         2.65897
O         11.97742        13.62030         0.39008
O          3.12808        13.84555         2.59843
O          6.34375        14.81333         0.69984
O         26.51533        14.76790         2.68815
O         17.50046        10.09158         1.71289
O          5.00915        16.37757        -2.02867
O         25.14532         9.78324         2.15848
O         11.49596         3.49335         0.90248
O          3.79605         3.92324         2.98681
O          4.41116         9.25621        -1.12193
O         14.07271         6.07944         1.17517
O         13.30464         3.99016        -2.22516
O         16.93930        14.28067        -1.95350
O          6.61352         4.78421        -1.69917
O         22.82981         3.39781         1.20595
O         18.32099         2.21587         0.65859
O         28.88996        16.75221        -0.53041
O          7.65605        14.38280        -2.62785
O          8.90224        12.29278        -2.54069
O         19.57948         9.45445        -1.14729
O         22.79794         5.91468         1.57326
O          2.83687         7.28621        -0.80474
H          2.99008         8.04759        -1.41438
O         16.33343        13.27461         1.45702
H         17.02701        13.26444         2.15932
O         29.74065        12.73010         2.80886
H         28.93839        13.11726         3.22150
O         23.90423        14.57829         2.87343
H         24.53784        14.12875         3.47960
O         20.13456        18.31284        -2.67930
H         20.87443        17.66633        -2.77333
O         24.29091         5.97383        -1.83930
H         24.52449         6.92395        -1.99776
O          7.00344        17.22386        -3.39397
H          6.02799        17.07720        -3.43156
O          8.03887         7.73453        -2.57303
H          8.67962         7.15704        -3.04114
O         15.71147         6.19974        -2.04878
H         16.48499         6.64688        -2.45200
O         11.41021         5.94861        -2.42402
H         12.09208         5.19433        -2.42407
H          0.71198         1.40042         2.48718
H          0.55176         3.81776         2.14169
H          2.80298         0.16020         2.06168
H          0.57355         5.82760         2.26363
H          0.55050         8.24827         2.16014
H          0.75200        10.04963         2.51262
H          1.10593        12.41193         3.13476
H          1.15712        15.52875         2.78928
H          1.03669        17.72828         1.55950
H          1.90038        19.31998         0.18252
H          5.11970         0.12515         1.10603
H          3.80876        20.39512        -0.98028
H          7.38851         0.11690         0.25777
H          6.19377        20.36648        -1.29473
H          9.74921         0.09042        -0.70540
H          8.64480        20.35543        -1.17673
H         12.22054         0.19662        -1.14406
H         11.13033        20.37540        -1.21060
H         14.64617         0.29711        -1.35581
H         13.62533        20.36772        -1.10088
H         16.98046         0.39470        -1.80823
H         16.12392        20.32819        -1.03825
H         19.76528         0.64780        -1.95744
H         18.59697        20.25835        -1.10846
H         22.10430         0.40249        -1.34800
H         20.97871        20.24048        -0.57259
H         24.63815         0.40977        -1.39955
H         23.33209        20.30498         0.21009
H         27.10188         0.41420        -1.21058
H         25.76011        20.33588         0.58544
H         29.54939         0.43437        -1.18394
H         28.19252        20.37035         0.99171
H         31.68417         1.65903        -0.91012
H         32.91470         3.75074        -0.46636
H         32.95008         6.16055        -0.00459
H         32.95400         8.06056         0.21951
H         32.94691        10.46696         0.53503
H         32.85527        12.37885         0.21521
H         32.89720        14.80222         0.54665
H         32.85463        16.67798         1.56857
H         30.65720        20.39818         1.44764
H         32.76387        19.14227         1.75936
