         404
 CSIRO Nanostructure Databank - Neutral Graphene Oxide Data Set
C          1.42433         1.89572         0.76377
C          1.23656         2.92691        -0.17832
C          2.70691         1.54355         1.12530
C          2.33045         3.64583        -0.64793
C          1.04213         6.61226        -1.15339
C          1.11808         7.95733        -0.81466
C          2.22637         5.88017        -1.27508
C          2.35524         8.61886        -0.77000
C          1.37585        10.55775         0.57633
C          1.37485        11.91950         0.89770
C          2.29476        10.04441        -0.36395
C          2.39681        12.79184         0.46131
C          1.23134        14.94113         1.08101
C          1.21397        16.33327         1.14374
C          2.38769        14.24017         0.68089
C          2.37534        17.08865         0.87497
C          2.39317        18.52554         0.90065
C          3.83463         2.23400         0.58742
C          3.66650         3.40596        -0.22764
C          5.11619         1.68224         0.75042
C          4.82783         4.15639        -0.67671
C          3.50466         6.44795        -1.11457
C          3.56430         7.87696        -1.03727
C          4.74695         5.58465        -1.21063
C          4.87024         8.52548        -1.15474
C          3.19080        10.97973        -0.90237
C          3.42082        12.25497        -0.36509
C          4.98829         9.93672        -1.37758
C          4.70013        12.96485        -0.58837
C          3.56617        14.98246         0.39456
C          3.58221        16.39662         0.56245
C          4.78400        14.32486         0.01010
C          4.79947        17.12077         0.40505
C          3.54161        19.22610         0.64293
C          4.79158        18.54985         0.41705
C          6.22004         2.25557         0.10073
C          6.08300         3.54986        -0.52559
C          7.44817         1.54237         0.10268
C          7.34142         4.14779        -1.13745
C          6.07574         6.34600        -1.21409
C          6.07311         7.81580        -1.08209
C          7.35202         5.64820        -0.98275
C          7.31932         8.52901        -1.00146
C          6.08829        10.69612        -1.00229
C          6.03082        12.18234        -0.87257
C          7.32044         9.97683        -0.83486
C          7.27173        12.82182        -0.37823
C          5.99453        14.99666         0.12002
C          6.03558        16.42095         0.31140
C          7.23957        14.17411         0.30029
C          7.26826        17.14369         0.32775
C          5.99323        19.23639         0.18749
C          7.25028        18.57771         0.15293
C          8.66617         2.12772        -0.31073
C          8.64387         3.50637        -0.70637
C          9.89165         1.43066        -0.21212
C          9.84653         4.20519        -0.81668
C          8.53851         6.36050        -0.92320
C          8.52658         7.80551        -0.98916
C          9.82084         5.65780        -0.91982
C          9.79742         8.52424        -1.07596
C          8.50025        10.69671        -0.58951
C          8.43980        12.09874        -0.26749
C          9.80046        10.05159        -0.78859
C          9.67544        12.77495         0.22503
C          8.51169        14.95712         0.14449
C          8.49396        16.36540         0.33479
C          9.72630        14.25834         0.17611
C          9.73558        16.95906         0.61559
C          8.40477        19.37286        -0.21665
C          9.71381        19.04809         0.17455
C         11.12267         2.08356        -0.45832
C         11.10169         3.49759        -0.71504
C         12.36794         1.40420        -0.41117
C         12.33303         4.17011        -0.90839
C         11.01587         6.35889        -0.94099
C         11.05803         7.80045        -0.88506
C         12.27685         5.61881        -1.15074
C         12.22978         8.51520        -0.64869
C         11.03516        10.64065        -0.25523
C         10.98054        12.03129         0.27286
C         12.21295         9.91598        -0.28858
C         12.23288        12.82146         0.28310
C         10.97206        14.94187         0.19991
C         10.98240        16.36233         0.32723
C         12.22675        14.23068         0.24611
C         12.18163        17.15450         0.21240
C         10.98741        19.36440        -0.32729
C         12.17740        18.58746        -0.04049
C         13.59729         2.08271        -0.57225
C         13.57578         3.50452        -0.80604
C         14.84781         1.40936        -0.47962
C         14.83199         4.23076        -0.85551
C         13.56681         6.37703        -1.05453
C         13.49965         7.76254        -0.50775
C         14.81508         5.62136        -0.87309
C         14.79528         8.49076        -0.29044
C         13.46748        10.55640         0.20342
C         13.46164        12.05664         0.47153
C         14.76321         9.94344        -0.12943
C         14.77097        12.78287         0.44995
C         13.42584        15.01201         0.30086
C         13.42374        16.43917         0.18363
C         14.71600        14.33037         0.41840
C         14.66374        17.16076         0.10245
C         13.41937        19.24568        -0.18103
C         14.67169        18.58487        -0.04807
C         16.08900         2.08978        -0.55546
C         16.09649         3.52176        -0.73032
C         17.32986         1.40982        -0.44586
C         17.32892         4.20527        -0.72135
C         16.05303         6.40041        -0.95895
C         16.06608         7.82361        -0.61744
C         17.37607         5.65886        -0.94460
C         17.25673         8.51469        -0.56077
C         15.93521        10.69039        -0.25117
C         15.95000        12.08788        -0.04511
C         17.20757         9.99500        -0.58679
C         17.18566        12.85243        -0.27779
C         15.92562        15.07112         0.09969
C         15.91938        16.47206         0.08179
C         17.17118        14.35666        -0.14306
C         17.16542        17.18485         0.04386
C         15.91001        19.28137        -0.10646
C         17.16655        18.61630        -0.02201
C         18.56663         2.09622        -0.46420
C         18.56834         3.52891        -0.55594
C         19.82089         1.43066        -0.38772
C         19.80857         4.25069        -0.51632
C         18.57737         6.41381        -0.56211
C         18.52925         7.82626        -0.48844
C         19.78537         5.69551        -0.39593
C         19.72336         8.54885        -0.14687
C         18.51233        10.74378        -0.37077
C         18.46391        12.17011        -0.04438
C         19.71988         9.98214        -0.05811
C         19.59961        12.86113         0.36728
C         18.42286        15.05410         0.15208
C         18.40193        16.47468         0.16882
C         19.60448        14.32618         0.40676
C         19.63453        17.17847         0.25122
C         18.41524        19.30010        -0.01457
C         19.65280        18.61011         0.11605
C         21.04885         2.10595        -0.51669
C         21.04737         3.55868        -0.59079
C         22.26073         1.34661        -0.33949
C         22.25844         4.35331        -0.66537
C         20.98090         6.42259        -0.12481
C         20.92264         7.82185         0.07578
C         22.24436         5.73542        -0.25794
C         22.16584         8.59060         0.33149
C         20.83423        10.71240         0.41667
C         20.78548        12.11419         0.65352
C         22.00578         9.98808         0.83368
C         21.95871        12.81377         1.19323
C         20.80659        15.03736         0.59619
C         20.84743        16.45235         0.43603
C         22.00208        14.33674         1.08182
C         22.10298        17.12042         0.41082
C         20.91478        19.25669         0.11001
C         22.13846        18.54061         0.23689
C         23.53917         1.74879        -0.76261
C         23.42577         3.94421        -1.34494
C         24.73965         1.30764        -0.18484
C         24.50779         4.82728        -1.55314
C         23.46636         6.42326        -0.11281
C         23.47519         7.85482         0.25719
C         24.68450         5.89253        -0.63089
C         24.79715         8.39943         0.64382
C         23.02056        10.68457         1.45335
C         23.24476        12.10180         1.33767
C         24.92228         9.62028         1.31888
C         24.48672        12.74531         1.37191
C         23.33105        14.92893         0.93043
C         23.34138        16.32972         0.44274
C         24.49521        14.19152         1.15051
C         24.67123        17.11143         0.56186
C         23.38692        19.23216         0.26644
C         24.61390        18.59169         0.53772
C         26.05634         1.87029        -0.30900
C         26.45437         3.12854        -1.05357
C         27.18087         1.27401         0.21315
C         27.18109         4.18395        -0.20523
C         25.99153         6.45300        -0.32930
C         25.98571         7.80158         0.17505
C         27.20216         5.69985        -0.24342
C         27.19552         8.52281         0.36373
C         25.95777        10.52762         1.11344
C         25.86654        11.99648         1.58267
C         27.16143         9.91837         0.67879
C         26.99360        12.76084         0.83434
C         25.77140        14.95559         1.27403
C         25.81867        16.40357         1.08702
C         27.09611        14.21084         1.29245
C         27.07195        17.11477         1.33094
C         25.81756        19.28950         0.67641
C         27.05223        18.65500         1.11343
C         28.52163         1.94509        -0.00220
C         28.40557         3.45040         0.30505
C         29.66366         1.32419         0.75110
C         29.65449         4.20774         0.52646
C         28.40192         6.35891         0.18283
C         28.42334         7.79712         0.33240
C         29.62999         5.62580         0.48836
C         29.60019         8.51573         0.66582
C         28.38825        10.65970         0.74335
C         28.34137        12.06241         0.86663
C         29.61750         9.93494         0.77534
C         29.54260        12.79880         0.81483
C         28.33766        14.97410         1.00665
C         28.34301        16.37921         1.08121
C         29.54001        14.24322         0.78158
C         29.52850        17.09431         0.72083
C         28.34706        19.41083         0.84013
C         29.56289        18.54365         0.58772
C         30.82904         2.03700         0.96188
C         30.84027         3.50434         0.82829
C         32.04861         1.33956         1.22478
C         32.03337         4.21938         1.08354
C         30.83222         6.31723         0.81174
C         30.79689         7.76676         1.03283
C         32.05225         5.63882         1.04770
C         32.10318         8.53535         1.20222
C         30.84415        10.66915         0.88978
C         30.79709        12.10061         0.80578
C         32.09455         9.98453         0.96144
C         32.00693        12.83520         0.74897
C         30.74625        14.94568         0.52741
C         30.69391        16.35946         0.39716
C         32.00805        14.22915         0.48880
C         31.84238        17.04970        -0.20269
C         30.70758        19.20198         0.20103
C         31.91549        18.51606        -0.17040
C         33.28065         2.00737         1.30306
C         33.24963         3.47665         1.43116
C         34.52222         1.35069         1.28389
C         34.58803         4.23522         1.28063
C         33.32343         6.37580         1.09760
C         33.36183         7.79829         1.06454
C         34.54310         5.67580         0.99629
C         34.58421         8.51680         1.00040
C         33.32261        10.66306         0.94414
C         33.27487        12.13032         0.97936
C         34.58571         9.98246         0.97206
C         34.57949        12.88030         0.72136
C         33.22966        14.90518         0.19569
C         33.16634        16.27648        -0.34156
C         34.48748        14.26033         0.23378
C         34.38147        17.05637        -0.47949
C         33.08624        19.16038        -0.51972
C         34.32802        18.44735        -0.72915
C         35.74799         2.04893         1.03909
C         35.75817         3.46047         0.92909
C         36.95257         1.33244         0.77883
C         36.87785         4.16503         0.21557
C         35.77680         6.36238         0.79660
C         35.79000         7.78128         0.89263
C         36.98428         5.63447         0.54547
C         37.08925         8.44793         0.93649
C         35.79553        10.70672         0.79752
C         35.80725        12.10548         0.49385
C         37.10217        10.01370         0.87327
C         36.95815        12.79826         0.07648
C         35.68435        14.89778        -0.16477
C         35.71174        16.40516        -0.21049
C         36.91149        14.18919        -0.24540
C         36.76600        16.90369        -1.16356
C         35.52231        19.14292        -1.03962
C         36.69840        18.41959        -1.50274
C         38.15994         2.00848         0.47516
C         38.17689         3.41921         0.31425
C         39.38912         1.28245         0.32580
C         39.38940         4.10651         0.08122
C         38.22051         6.30504         0.38037
C         38.28666         7.70795         0.55987
C         39.42951         5.54285         0.06216
C         39.52576         8.47037         0.38064
C         38.28630        10.64611         0.29305
C         38.30902        12.15458         0.26236
C         39.45714         9.92260         0.05714
C         39.40457        12.74458        -0.58010
C         38.11510        14.86618        -0.72475
C         38.06736        16.20996        -1.15343
C         39.33388        14.12079        -0.93195
C         39.19724        16.87549        -1.70251
C         37.96794        19.04206        -1.81468
C         39.13484        18.28851        -2.01376
C         40.55778         1.93306         0.02464
C         40.59549         3.35697        -0.09505
C         41.79727         4.04253        -0.38968
C         40.64720         6.18567        -0.20380
C         40.75805         7.66596        -0.11536
C         41.81460         5.42416        -0.46298
C         41.67862         8.38215        -0.98119
C         40.59162        10.55281        -0.55377
C         40.56140        11.98328        -0.83893
C         41.63427         9.74994        -1.09704
C         41.67830        12.64263        -1.42104
C         40.46827        14.75905        -1.51841
C         40.42647        16.16800        -1.85804
C         41.63489        13.98554        -1.73337
C         41.56037        16.85891        -2.33419
C         40.32435        18.93958        -2.45565
C         41.50238        18.22972        -2.62042
O         17.15080        13.69642        -1.49710
O         14.07627         7.79835         0.83966
O         17.93196        10.51870        -1.73477
O         24.20810        16.51605        -0.72235
O         40.64832         8.14404         1.26119
O         27.28654         3.75367         1.19310
O         27.04781        18.06615         2.45437
O         13.37635        11.07663         1.57226
O         22.97711         8.64606        -0.92998
O         34.05483        12.71208         2.08092
O         10.15087        12.20468         1.50187
O         32.23859        16.44142        -1.47690
O         26.65105         3.05244        -2.26406
O         16.78940         6.10115        -2.20956
O         37.30747         9.29753         2.12243
O         23.57648         2.65079        -1.86699
O         23.91811         9.95780         2.22676
O          5.42957         5.83406        -2.48105
O          9.90594         9.51145        -2.14933
O          3.92682        10.57729        -2.02025
O         12.96534         6.13112        -2.36135
O          9.75270        18.17343         1.28902
O         33.98016         3.94375         2.59230
O          5.31089        12.91245        -1.91643
O         31.30714         8.14113         2.36942
O         14.95315        13.55941         1.67633
O         36.31886        17.30901        -2.44540
O         21.71859        13.67374         2.36210
O          2.07769         4.55213        -1.67886
O         26.47604        14.55551         2.54157
O          7.27406         3.87545        -2.57821
H          6.55518         4.45404        -2.93927
O         26.56589        12.78894        -0.55714
H         27.32816        13.04302        -1.11805
O         28.16570        20.29838        -0.27367
H         28.18332        19.77464        -1.10071
O         28.93139         1.77979        -1.39843
H         28.15658         1.93510        -1.98581
O         26.15961        12.00453         2.98383
H         25.44399        11.52485         3.45100
O          7.18732        13.83118         1.74335
H          8.05117        13.43077         1.98919
O         38.66851        12.52021         1.65594
H         39.45802        11.99313         1.90549
O         25.23962         4.81598        -2.68549
H         25.04200         4.00373        -3.19881
O         36.49446         4.12340        -1.23203
H         36.58908         3.19108        -1.52500
O         36.16058        16.83071         1.12248
H         35.65855        16.31942         1.79232
H          0.55893         1.34583         1.15737
H          0.23561         3.15728        -0.56461
H          2.88568         0.68552         1.78817
H          0.07631         6.11526        -1.30681
H          0.19498         8.52853        -0.64809
H          0.62782         9.89683         1.03707
H          0.58705        12.30292         1.56089
H          0.31094        14.38468         1.30797
H          0.28271        16.85339         1.41126
H          1.45542        19.06033         1.11211
H          5.23805         0.74382         1.31041
H          3.53080        20.32602         0.64621
H          7.45836         0.52520         0.52164
H          5.97176        20.33288         0.09662
H          9.88525         0.36822         0.07223
H          8.22665        20.25894        -0.84511
H         12.37484         0.32011        -0.22321
H         11.10779        20.24254        -0.98009
H         14.84913         0.32073        -0.31702
H         13.41811        20.32790        -0.38137
H         17.32924         0.31363        -0.34880
H         15.89345        20.37770        -0.20379
H         19.83039         0.33623        -0.27474
H         18.42280        20.39768        -0.09478
H         22.18493         0.42246         0.25546
H         20.95545        20.35015        -0.00726
H         24.64787         0.48835         0.54653
H         23.37933        20.32872         0.17972
H         27.12705         0.29573         0.71511
H         25.86577        20.34729         0.37826
H         29.67778         0.22803         0.85518
H         28.54968        20.06534         1.72922
H         32.03040         0.23933         1.23370
H         30.68752        20.29998         0.13119
H         34.54058         0.25062         1.26994
H         33.10730        20.25967        -0.56115
H         36.95505         0.23651         0.86481
H         35.54260        20.24220        -1.02008
H         39.37413         0.18911         0.44170
H         38.02698        20.14027        -1.84157
H         41.49027         1.36604        -0.11102
H         42.72301         3.46945        -0.54211
H         42.76138         5.94379        -0.66553
H         42.37234         7.80940        -1.61268
H         42.38723        10.22639        -1.73890
H         42.61080        12.09449        -1.60691
H         42.53000        14.44949        -2.16780
H         42.51572        16.33573        -2.47013
H         40.28848        20.01454        -2.68269
H         42.40617        18.74428        -2.97559
