         210
 CSIRO Nanostructure Databank - Neutral Graphene Oxide Data Set
C         30.46911        31.90463        -1.00827
C         30.53592        33.14783        -0.85235
C         30.62089        36.30919        -0.78478
C         30.57768        37.55055        -0.69740
C         30.80316        40.71060        -0.56818
C         30.69954        41.95096        -0.32652
C         32.82814        29.00309        -0.86974
C         31.79872        29.65902        -1.11658
C         32.83297        31.77743        -0.69187
C         31.60677        31.06578        -0.94117
C         32.86947        33.19159        -0.51768
C         31.66138        33.98036        -0.64568
C         32.93285        36.09141        -0.38202
C         31.68978        35.38018        -0.60116
C         32.94821        37.49821        -0.29632
C         31.83764        38.38042        -0.87525
C         32.94392        40.43851         0.22574
C         31.82139        39.78584        -0.34526
C         32.95675        41.84221         0.53993
C         31.76346        42.64817         0.25345
C         32.85314        44.50177         1.32381
C         31.94129        44.00854         0.64218
C         35.49300        27.41970        -0.13845
C         35.35520        28.81432        -0.25237
C         34.18667        29.52372        -0.78282
C         35.27514        31.68438         0.11120
C         34.13565        31.04700        -0.66585
C         35.34163        33.17591        -0.11098
C         34.12303        33.89456        -0.27290
C         35.37669        36.01851         0.01839
C         34.13428        35.31691        -0.19013
C         35.37502        37.40454         0.24078
C         34.11065        38.13628         0.31760
C         35.40720        40.32573         0.81684
C         34.11804        39.62673         0.61740
C         35.38731        41.71280         1.17183
C         34.12684        42.41862         1.15261
C         35.35980        44.51659         2.05294
C         34.07793        43.80448         1.71362
C         35.55870        45.96961         1.96102
C         37.85886        27.32224         0.02451
C         36.55428        26.77308         0.04908
C         37.82563        28.75960         0.05389
C         36.58957        29.49986        -0.04599
C         37.79210        31.66273         0.09883
C         36.60223        30.95480        -0.03620
C         37.81773        33.09895         0.15128
C         36.58572        33.84919         0.02572
C         37.84589        35.97144         0.29332
C         36.60974        35.27256         0.06587
C         37.84631        37.35529         0.50046
C         36.64538        38.19412         0.16516
C         37.82633        40.28569         0.94747
C         36.61199        39.60035         0.75651
C         37.85450        41.66871         1.25568
C         36.64054        42.36625         1.45516
C         37.98143        44.58564         1.62965
C         36.68566        43.79296         1.86342
C         37.92063        46.03842         1.27976
C         36.60408        46.50142         1.55036
C         40.20907        24.41523         0.39062
C         39.29886        25.23009         0.05236
C         40.30430        27.35350        -0.28691
C         39.08608        26.61551        -0.06999
C         40.27405        28.78181        -0.12871
C         39.07728        29.46046         0.06083
C         40.34074        31.65807         0.15213
C         39.06356        30.91701         0.45917
C         40.32074        33.07986         0.24683
C         39.06308        33.79467         0.27445
C         40.32910        35.91227         0.38097
C         39.08352        35.21541         0.35482
C         40.35824        37.33952         0.44507
C         39.10259        38.03955         0.78334
C         40.32348        40.26630         0.54228
C         39.11350        39.54286         0.93877
C         40.32248        41.65003         0.54006
C         39.18448        42.35200         1.19831
C         40.31253        44.57595         0.49310
C         39.24370        43.86260         1.23774
C         40.21791        45.96391         0.27312
C         38.97647        46.66726         0.65798
C         40.01924        48.69668        -0.16771
C         39.07098        48.04493         0.30950
C         42.77931        24.43743         0.60694
C         41.53835        24.52448        -0.05669
C         42.78762        27.37063        -0.10163
C         41.56794        26.72285        -0.50390
C         42.80571        28.79109        -0.02015
C         41.55518        29.53206        -0.44462
C         42.79367        31.66035         0.08886
C         41.54310        30.97339        -0.00176
C         42.79746        33.08171         0.18484
C         41.55423        33.78594         0.21816
C         42.79325        35.93096         0.22669
C         41.56231        35.21363         0.27295
C         42.78467        37.35990         0.18089
C         41.53803        38.05126         0.27642
C         42.78793        40.24981         0.12446
C         41.48255        39.52148        -0.05505
C         42.73873        41.69091        -0.04460
C         41.48083        42.38940         0.13843
C         42.56739        44.52153        -0.49524
C         41.45919        43.83044         0.05252
C         42.52653        45.93771        -0.61697
C         41.33177        46.67941        -0.30043
C         42.48320        48.68489        -0.96757
C         41.28530        48.12593        -0.50453
C         43.72789        25.25458         0.43585
C         45.15607        27.34636         0.58245
C         43.96198        26.63943         0.31221
C         45.21831        28.77856         0.48191
C         44.00237        29.49407         0.21754
C         45.25627        31.64441         0.30666
C         44.02576        30.94077         0.18118
C         45.26638        33.07708         0.27065
C         44.03539        33.79191         0.22007
C         45.25695        35.95022         0.14524
C         44.03356        35.22684         0.20264
C         45.24202        37.38020         0.05586
C         44.00422        38.08638         0.08364
C         45.24912        40.26631         0.01937
C         43.97620        39.53878         0.09606
C         45.20356        41.75268        -0.30329
C         43.88433        42.38870        -0.43003
C         45.02434        44.50399        -1.20741
C         43.71916        43.72906        -1.11519
C         44.97128        45.89084        -1.15240
C         43.73786        46.61506        -1.03094
C         43.52806        47.98498        -1.13220
C         47.49503        27.42120         1.02013
C         46.42368        26.78900         0.90905
C         47.69100        28.82004         0.88340
C         46.45594        29.49945         0.62208
C         47.72760        31.63770         0.54041
C         46.49133        30.92712         0.47812
C         47.71562        33.06561         0.44895
C         46.51034        33.79035         0.32617
C         47.70703        35.96776         0.12821
C         46.50616        35.24074         0.20791
C         47.71301        37.38262        -0.08088
C         46.48088        38.09421        -0.08695
C         47.68587        40.19600        -0.48369
C         46.49105        39.51109        -0.25678
C         47.74383        41.60995        -1.03547
C         46.30519        42.25430        -1.22242
C         47.63287        44.55084        -0.98200
C         46.32108        43.78394        -1.29607
C         47.36622        45.97059        -0.74277
C         46.28180        46.47201        -1.09756
C         50.20870        28.95970         1.09091
C         48.91680        29.52113         0.92994
C         50.25498        31.62597         0.69707
C         48.97738        30.93750         0.74035
C         50.27253        33.04105         0.47399
C         48.99114        33.78766         0.59305
C         50.23088        35.99736         0.03383
C         48.98966        35.29154         0.37674
C         50.20128        37.39867        -0.05069
C         48.94425        38.10997        -0.12713
C         50.13187        40.30138        -0.12310
C         48.93067        39.52280        -0.29178
C         50.05746        41.74405        -0.00364
C         48.83407        42.42629        -0.34266
C         49.91946        44.43496         0.15132
C         48.75999        43.83324        -0.37146
C         51.33392        29.50285         1.04704
C         52.66116        31.69506         0.65804
C         51.51244        30.89394         0.81235
C         52.57517        32.92472         0.38884
C         51.46528        33.77347         0.28530
C         52.62855        36.07833         0.19175
C         51.49610        35.17532        -0.25105
C         52.55069        37.31511         0.08887
C         51.41849        38.18485         0.01077
C         52.43059        40.48331         0.34531
C         51.36813        39.58420         0.05742
C         52.40852        41.71518         0.55230
C         51.23732        42.50800         0.39612
C         51.00187        43.89110         0.49702
O         39.21431        38.67367         2.13162
O         37.56996        44.18541         2.96316
O         39.70036        43.05600         2.37113
O         33.81560        38.68086         1.71404
O         47.28479        44.17414        -2.34144
O         34.51928        30.40394        -1.90862
O         34.54245        43.95654         3.08200
O         45.51917        41.31091         1.04036
O         49.02718        34.69615         1.75301
O         41.62943        25.48301        -1.17288
O         41.23500        39.55081        -1.52288
H         41.98408        39.08557        -1.95417
O         32.07211        38.50745        -2.28666
H         31.95907        37.62868        -2.70617
O         51.58865        35.03006        -1.67946
H         51.75547        35.91164        -2.07468
O         36.81027        38.48913        -1.29587
H         36.85654        37.62865        -1.76714
O         34.89248        31.50692         1.52055
H         35.48795        32.05984         2.07000
O         39.03638        30.88713         1.93687
H         38.24004        30.38195         2.20819
O         43.30578        43.46189        -2.49822
H         42.58751        42.79477        -2.47544
O         41.60817        29.60252        -1.91361
H         41.66224        28.68318        -2.25332
O         45.81255        41.79426        -2.50362
H         46.58373        41.74137        -3.11561
O         48.28095        41.46988        -2.39060
H         48.48003        42.37969        -2.71334
