         762
 CSIRO Nanostructure Databank - Neutral Graphene Oxide Data Set
C         23.05216        24.41073         1.97310
C         21.75757        24.89162         2.11507
C         22.69778        26.98160         2.85893
C         21.57837        26.18994         2.58753
C         22.79224        29.17601         2.35742
C         21.90128        29.43522         1.30895
C         23.02356        31.39693         0.41332
C         22.16830        30.30822         0.22399
C         23.71219        32.25776        -0.49923
C         23.19830        32.40131        -1.82522
C         24.51003        34.43624        -2.16216
C         23.54485        33.47264        -2.60264
C         24.67327        35.64389        -2.87062
C         23.80957        36.12385        -3.92617
C         24.55760        38.47982        -3.52623
C         23.80727        37.42771        -4.31439
C         24.74877        39.81347        -4.22060
C         23.65302        40.40933        -4.85133
C         24.87646        42.50302        -5.16959
C         23.70627        41.72241        -5.31315
C         24.87181        43.93530        -5.53349
C         23.68280        44.54460        -5.97352
C         24.73810        46.71572        -5.97542
C         23.62646        45.91591        -6.21279
C         25.68009        23.22414         1.85536
C         25.48517        24.53252         2.25691
C         24.18911        25.19009         2.28639
C         25.22073        27.42109         2.97146
C         24.04628        26.56205         2.69612
C         25.28291        28.82469         2.85050
C         24.14325        29.63440         2.44873
C         25.55105        31.67320         1.98797
C         24.34994        30.95648         2.03466
C         25.53301        32.88696         1.17636
C         24.80811        33.08268        -0.06615
C         26.31406        35.01453        -0.54191
C         25.23803        34.16679        -0.92337
C         26.72941        36.11886        -1.41863
C         25.81646        36.50785        -2.57444
C         26.98222        38.69842        -2.77048
C         25.82913        37.90468        -2.98688
C         27.07907        39.98682        -3.39566
C         25.95960        40.55964        -4.09229
C         27.35105        42.60374        -4.64262
C         26.00782        41.90460        -4.58918
C         27.31691        44.11027        -4.99391
C         26.02759        44.74184        -5.36950
C         27.10492        47.02326        -5.24437
C         25.95591        46.15289        -5.54054
C         27.01824        48.46751        -5.45512
C         28.00409        23.11820         2.62230
C         26.88408        22.49518         2.12140
C         27.96305        24.63486         2.62805
C         26.59859        25.22093         2.95126
C         27.67802        27.48326         3.84004
C         26.46098        26.67481         3.34928
C         27.69687        28.92473         3.39334
C         26.55724        29.59009         3.01384
C         27.75176        31.79640         3.18672
C         26.64197        31.06724         2.74347
C         27.86573        33.22716         3.03804
C         26.38243        33.93945         1.58025
C         28.12906        35.71267         1.14386
C         26.91042        34.92883         0.75176
C         28.61864        36.63277         0.03621
C         27.50875        37.26510        -0.78321
C         29.29894        38.85817        -1.82749
C         27.96284        38.25404        -1.83123
C         29.42815        40.25225        -2.43306
C         28.16482        40.87897        -2.93774
C         29.35240        43.17528        -3.04225
C         28.17944        42.29633        -3.39611
C         29.42567        44.57711        -3.54065
C         28.43343        45.03879        -4.56785
C         29.47748        47.34276        -4.50753
C         28.26762        46.50350        -4.72660
C         29.35952        48.83598        -4.73718
C         28.04437        49.31082        -5.21070
C         30.60193        20.37988         2.43006
C         29.44951        21.02645         2.81408
C         30.35962        23.26992         3.23093
C         29.26380        22.46502         2.92078
C         30.43924        24.68608         3.03912
C         29.11914        25.30942         3.32099
C         30.25799        27.49495         3.11669
C         29.04717        26.75606         3.62689
C         30.19978        28.99110         3.17830
C         28.97506        29.61980         3.80239
C         30.25699        31.80572         3.53604
C         28.94396        31.12755         3.80290
C         30.22366        33.27565         3.56538
C         29.05478        33.92040         2.91316
C         30.62290        35.65872         1.96774
C         29.17990        35.20554         2.16036
C         30.97463        36.84243         1.08002
C         29.98576        37.22372         0.02340
C         31.51540        39.30338        -0.46785
C         30.35667        38.39742        -0.85467
C         31.67755        40.65304        -1.12764
C         30.63838        41.10965        -2.12651
C         31.70365        43.48922        -2.03410
C         30.62580        42.56384        -2.53811
C         31.56493        44.95583        -2.31251
C         30.61618        45.39809        -3.20515
C         31.44393        47.75736        -2.88310
C         30.62257        46.79732        -3.68933
C         31.32824        49.22823        -3.09583
C         30.35842        49.78202        -4.10772
C         31.05998        52.01334        -3.37403
C         30.12050        51.23579        -3.96209
C         32.72818        19.08483         0.73544
C         32.84713        20.44428         1.22173
C         31.84286        21.00287         2.02575
C         32.80882        23.30871         1.82510
C         32.12740        22.34380         2.49672
C         32.88068        24.69968         2.37947
C         31.62689        25.38895         2.84997
C         32.67444        27.63593         2.53044
C         31.57550        26.83734         2.85977
C         32.60969        29.07200         2.65379
C         31.46809        29.72282         3.10110
C         32.72822        31.87598         3.37924
C         31.45508        31.14545         3.36581
C         32.74865        33.21798         3.69655
C         31.49318        34.00325         3.78346
C         32.80612        36.14884         3.34428
C         31.65640        35.25556         2.97317
C         33.00959        37.42005         2.58423
C         32.13897        37.72633         1.39895
C         33.34287        39.90714         1.14844
C         32.28824        39.06103         0.77599
C         33.42740        41.23697         0.56579
C         32.57121        41.66112        -0.48958
C         33.49602        43.92236        -0.33868
C         32.61067        42.99617        -0.95477
C         33.39527        45.37095        -0.66111
C         32.56398        45.86078        -1.77831
C         33.57758        48.13606        -1.59215
C         32.57428        47.21394        -2.08965
C         33.57455        49.52157        -1.95795
C         32.44674        50.10925        -2.65930
C         33.42936        52.38529        -2.54629
C         32.29899        51.47423        -2.83740
C         33.25523        53.82952        -2.38607
C         35.05838        18.70680         0.05136
C         33.68067        18.31305         0.11957
C         35.13998        20.90826         0.46304
C         33.88562        21.37466         0.75870
C         34.87759        23.66766         0.39643
C         33.59484        22.86428         0.60841
C         34.95512        24.95645         0.86016
C         34.04361        25.53136         1.92307
C         34.78845        27.87811         1.14536
C         34.06416        27.05149         2.24324
C         34.91287        29.35988         1.50888
C         33.76969        29.93105         2.27912
C         35.14808        31.95866         2.78420
C         33.93702        31.23973         2.92967
C         35.25759        33.27282         3.37316
C         34.02421        33.93874         3.85309
C         35.28905        36.25165         4.16873
C         33.99209        35.45266         3.97457
C         35.37788        37.56145         3.42576
C         34.40538        37.97988         2.37136
C         35.34571        40.34718         2.56498
C         34.36294        39.47296         2.08302
C         35.26613        41.71920         2.15948
C         34.38904        42.13535         1.09528
C         35.43712        44.40229         1.18306
C         34.41535        43.48461         0.62890
C         35.49514        45.84003         0.80151
C         34.41200        46.34141        -0.10038
C         35.71544        48.43375        -0.36882
C         34.60545        47.64359        -0.74973
C         35.69247        49.79190        -0.73735
C         34.63050        50.34334        -1.48414
C         35.57476        52.70980        -1.15179
C         34.66523        51.77939        -1.84491
C         35.49659        54.06493        -1.39054
C         34.27998        54.60941        -1.94809
C         37.25982        16.45419        -1.77822
C         36.09357        17.06243        -1.46347
C         37.31254        19.19930        -0.74305
C         36.07536        18.34290        -0.80267
C         37.15271        20.70813        -0.89550
C         36.13652        21.52570        -0.38109
C         37.15818        23.84373        -0.68017
C         35.86288        23.05287        -0.64898
C         37.16076        25.26597        -0.34761
C         35.99175        25.88334         0.32784
C         37.27638        28.01099         0.63632
C         36.12944        27.27052         0.82838
C         37.38296        29.41642         1.01507
C         36.22210        30.08072         1.53159
C         37.43246        32.26351         1.73351
C         36.26853        31.39066         2.05487
C         37.47831        33.60959         2.37547
C         36.42852        34.03975         3.22821
C         37.79120        36.17931         3.75680
C         36.53534        35.38182         3.87833
C         37.76146        37.66252         3.78751
C         36.55645        38.32433         3.56885
C         37.81194        40.48115         3.43660
C         36.42622        39.83890         3.57048
C         37.91185        41.87447         3.56336
C         36.15443        42.72348         2.67864
C         37.70491        44.69059         2.35622
C         36.56187        43.82159         1.94813
C         37.99775        45.83795         1.37684
C         36.77083        46.58047         0.89137
C         38.07891        48.62066         0.56882
C         36.85514        47.85832         0.38304
C         38.11961        49.97691        -0.08843
C         36.76040        50.65056        -0.17436
C         37.87673        52.95624        -0.10747
C         36.64656        52.13132        -0.30561
C         37.85656        54.42638        -0.43605
C         36.52324        55.07313        -0.85770
C         37.92273        56.84017        -1.98580
C         36.74809        56.19694        -1.84073
C         39.45748        15.38968        -3.48875
C         39.63767        16.59046        -2.63114
C         38.57184        17.13130        -1.70200
C         39.87516        19.43364        -1.48600
C         38.61279        18.57365        -1.19353
C         39.52412        20.88611        -1.76797
C         38.21967        21.26575        -1.71812
C         39.56646        23.93794        -1.27929
C         38.20589        23.44987        -1.46678
C         39.60398        25.24948        -0.65598
C         38.45597        25.93842        -0.32966
C         39.80570        28.05544         0.12017
C         38.45914        27.37980        -0.00786
C         39.86182        29.37386         0.75215
C         38.65429        30.07666         0.99182
C         40.14483        32.13266         0.93721
C         38.70446        31.55553         1.15800
C         40.33975        33.54617         1.38715
C         38.50464        34.54938         2.08686
C         40.12244        36.30718         2.79058
C         38.83630        35.65331         2.86254
C         40.25888        37.61922         3.21503
C         39.09222        38.35851         3.83457
C         40.24973        40.49402         3.21088
C         39.02248        39.78741         3.36465
C         40.26646        41.91865         3.11616
C         39.05182        42.64025         3.29554
C         40.18377        44.95687         3.26636
C         38.91105        44.11745         3.10691
C         40.28228        46.19307         2.34997
C         39.17204        46.73378         1.73235
C         40.39109        48.92670         1.47114
C         39.19946        48.09695         1.22310
C         40.35180        50.29398         1.04118
C         39.21679        50.87712         0.40850
C         40.37357        53.01427        -0.10995
C         39.15061        52.23377         0.06002
C         40.34349        54.45954        -0.44670
C         39.15587        55.11640        -0.72118
C         40.35880        57.13556        -1.53589
C         39.16416        56.41403        -1.35533
C         40.45970        58.30997        -2.35407
C         41.65941        15.78177        -4.49152
C         40.42005        15.04365        -4.37878
C         41.80311        17.00019        -3.89142
C         40.61891        17.56913        -3.19287
C         41.87512        19.76123        -3.02019
C         40.66172        18.96567        -2.70557
C         41.84692        21.21062        -2.79319
C         40.51700        21.87378        -2.42510
C         42.04055        23.71940        -1.31899
C         40.71412        23.19586        -1.61836
C         42.13707        24.98208        -0.51816
C         40.90426        25.81021        -0.26211
C         42.27569        27.80359         0.25474
C         41.03151        27.24080         0.03883
C         42.38262        29.14645         0.82123
C         41.16527        29.90316         1.05952
C         42.43766        31.78504         2.05185
C         41.22953        31.23953         1.45987
C         42.53466        33.23410         2.42092
C         41.33986        34.06879         2.14590
C         42.71023        36.15178         2.81136
C         41.34588        35.45943         2.68286
C         42.74211        37.62937         2.88178
C         41.51466        38.34166         3.15972
C         42.75022        40.50435         3.30093
C         41.48868        39.75448         3.19296
C         42.74887        41.98369         3.15670
C         41.53256        42.63001         3.07310
C         42.74628        44.87240         3.30434
C         41.46463        44.09365         3.33929
C         42.53313        46.33477         3.23201
C         41.47981        47.00306         2.56795
C         42.77909        49.25443         2.51727
C         41.52171        48.38832         2.15727
C         42.74908        50.66332         1.91714
C         41.49000        51.19611         1.31326
C         42.73052        53.41020         0.81932
C         41.62362        52.42019         0.46571
C         42.90631        54.41101        -0.35145
C         41.60472        55.21469        -0.39545
C         42.88919        57.32075        -1.23463
C         41.60524        56.66946        -0.89968
C         42.88969        58.41229        -2.05773
C         41.66306        58.92339        -2.59264
C         44.20301        16.92684        -3.53158
C         43.08108        17.70502        -3.73498
C         44.22627        19.95800        -3.54725
C         43.02281        19.15606        -3.49306
C         44.42130        21.09603        -2.79671
C         43.20038        21.88767        -2.54681
C         44.55745        23.59687        -1.34388
C         43.23814        23.11006        -1.71827
C         44.62715        24.90829        -0.64797
C         43.40520        25.73349        -0.49995
C         44.70980        27.89378        -0.31839
C         43.47187        27.05193        -0.10341
C         44.84440        29.10391         0.56256
C         43.63488        29.74220         1.02728
C         44.99808        31.81580         1.68843
C         43.75002        31.01342         1.76915
C         45.07874        33.18410         1.91680
C         43.89889        33.94467         2.39923
C         45.07083        36.12047         2.02529
C         43.91696        35.42577         2.35926
C         45.12825        37.57282         2.18714
C         43.96122        38.28137         2.70156
C         45.33505        40.43850         2.90572
C         44.04839        39.69702         3.11299
C         45.31931        41.95923         2.97753
C         44.06395        42.74329         3.43862
C         45.16080        44.90397         2.40765
C         44.03205        44.21114         2.92085
C         45.22028        46.33164         2.15783
C         44.34217        47.33383         2.68307
C         45.11783        49.16576         1.21451
C         44.06211        48.54834         2.10501
C         45.24816        50.64048         1.49773
C         44.01598        51.37213         1.56401
C         45.22284        53.49922         1.20629
C         44.00299        52.69693         1.17066
C         45.30205        54.79919         0.53824
C         44.16127        55.27916        -0.25149
C         45.29830        57.53546        -0.25281
C         44.16313        56.72643        -0.71997
C         45.49016        17.37797        -3.06559
C         47.13023        19.31917        -2.76292
C         45.97682        18.61702        -3.34523
C         47.02894        20.81493        -2.45965
C         45.78956        21.77503        -2.67520
C         47.03520        23.53491        -1.34359
C         45.74252        22.93683        -1.67120
C         47.14347        24.88908        -0.94713
C         45.93548        25.61582        -0.52871
C         47.27242        27.68037        -0.06526
C         46.00144        27.12371        -0.67850
C         47.31003        28.96995         0.47273
C         46.11164        29.69380         0.78030
C         47.52997        31.82106         1.27189
C         46.21320        31.02435         1.41523
C         47.47515        33.28659         1.24448
C         46.28418        33.95785         1.62357
C         47.45315        36.11359         1.31055
C         46.27370        35.38943         1.65042
C         47.46618        37.55730         1.35862
C         46.30860        38.25011         1.88028
C         47.50931        40.45373         1.55423
C         46.47399        39.68735         2.24092
C         47.43044        41.89378         1.48943
C         46.43877        42.68564         2.29400
C         47.57504        44.76855         1.73144
C         46.37375        44.15379         2.05170
C         47.65108        46.20178         1.42094
C         46.35796        46.96231         1.46734
C         47.62922        49.09596         1.42382
C         46.42466        48.44569         1.42594
C         47.70561        50.54222         1.31018
C         46.47585        51.28099         1.39937
C         47.77866        53.41216         0.98234
C         46.55651        52.74733         1.43977
C         47.76724        54.80071         0.69078
C         46.49968        55.50991         0.50065
C         46.43557        56.92572         0.18609
C         49.31666        19.12609        -1.65672
C         48.17179        18.52130        -2.09168
C         49.40492        20.55026        -1.62938
C         48.09198        21.28627        -1.46052
C         49.49084        23.40055        -1.37353
C         48.22859        22.78055        -1.46862
C         49.56668        24.77415        -1.03607
C         48.39638        25.51748        -0.77707
C         49.70847        27.52292        -0.23133
C         48.47309        26.91322        -0.32655
C         49.83039        28.92254         0.18787
C         48.61545        29.65964         0.64252
C         49.77290        31.85972         0.25552
C         48.65876        31.14672         0.63215
C         49.82574        33.29669         0.41246
C         48.63808        33.99578         0.84151
C         49.82759        36.14280         0.58047
C         48.63418        35.42283         0.89672
C         49.81785        37.57122         0.61860
C         48.61399        38.26569         0.95198
C         49.88856        40.46133         0.76495
C         48.53430        39.75771         0.68878
C         49.95753        41.85671         0.93372
C         48.73042        42.65273         1.10963
C         50.03056        44.74117         1.47604
C         48.81615        44.05761         1.50978
C         50.09584        46.17223         1.72223
C         48.92714        46.90723         1.64283
C         50.17322        49.15286         1.87385
C         48.87289        48.37318         1.79706
C         50.18825        50.51204         1.27463
C         48.93213        51.21363         1.16236
C         50.16346        53.25528         0.45282
C         48.95822        52.63388         0.86339
C         50.15756        54.65019         0.21673
C         48.99818        55.40118         0.33104
C         51.85680        20.51264        -1.97337
C         50.65182        21.22943        -1.71091
C         51.95893        23.32536        -1.79120
C         50.71739        22.65242        -1.60219
C         52.06864        24.73930        -1.48050
C         50.90242        25.35617        -0.82388
C         52.20231        27.56235        -0.76636
C         50.97555        26.81009        -0.44317
C         52.22557        28.96256        -0.67145
C         50.95754        29.68057        -0.42573
C         52.21713        31.87862        -0.48241
C         50.92897        31.17384        -0.37659
C         52.23513        33.27743        -0.24526
C         51.02442        33.99162         0.14488
C         52.23014        36.15760         0.05354
C         51.03575        35.43485         0.25635
C         52.24595        37.57734         0.13779
C         51.03957        38.28798         0.39195
C         52.33390        40.40277         0.53049
C         51.07901        39.72254         0.54474
C         52.38730        41.79298         0.79299
C         51.20853        42.53174         0.97839
C         52.58533        44.74489         1.21142
C         51.24743        44.01832         1.07477
C         52.65397        46.09397         1.76439
C         51.40723        46.83440         1.99790
C         52.74156        49.08799         1.73576
C         51.44991        48.37355         2.03864
C         52.68715        50.44151         1.06439
C         51.36841        51.10500         0.85022
C         52.52589        52.95543        -0.26064
C         51.37096        52.45294         0.32500
C         53.04619        21.17555        -2.20369
C         54.33423        23.31007        -2.57079
C         53.11352        22.58560        -2.16040
C         54.39094        24.83625        -2.29829
C         53.24900        25.45885        -1.59954
C         54.56515        27.58092        -1.35138
C         53.35145        26.85965        -1.20987
C         54.61629        28.99069        -1.18984
C         53.40769        29.70149        -0.90783
C         54.62157        31.85233        -0.95543
C         53.39052        31.14643        -0.79369
C         54.60928        33.27618        -0.83386
C         53.45931        33.97437        -0.44394
C         54.63395        36.21890        -0.65873
C         53.54572        35.41886        -0.00093
C         54.68360        37.60574        -0.45244
C         53.49114        38.30510        -0.01451
C         54.81257        40.39377         0.14228
C         53.54939        39.68689         0.21959
C         54.92815        41.72631         0.59152
C         53.70795        42.41830         1.04683
C         55.11333        44.55087         1.26439
C         53.79994        43.88301         1.33475
C         55.18673        45.89895         1.66756
C         53.96990        46.72265         1.97529
C         55.19963        48.92482         1.11400
C         54.02005        48.27882         1.79911
C         55.10883        50.20705         0.26889
C         53.84296        50.97490         0.29672
C         53.72139        52.18860        -0.33102
C         56.77804        23.35775        -2.86025
C         55.63176        22.64420        -2.70619
C         56.84481        24.79142        -2.67049
C         55.70927        25.47020        -2.23944
C         57.06609        27.60220        -1.87492
C         55.79613        26.82254        -1.65282
C         57.06737        29.06931        -1.70163
C         55.86355        29.73312        -1.32718
C         57.12906        31.87033        -1.04985
C         55.83996        31.14739        -1.17676
C         57.14611        33.33517        -1.26655
C         55.81792        34.00683        -1.27594
C         57.10016        36.18913        -1.25059
C         55.77732        35.50904        -1.24274
C         57.12919        37.65260        -1.03493
C         55.87920        38.35513        -0.68823
C         57.26007        40.38488        -0.32369
C         55.97787        39.71529        -0.33876
C         57.35251        41.67383         0.23390
C         56.18775        42.37873         0.65203
C         57.54241        44.44762         1.00519
C         56.28631        43.78333         1.03363
C         57.61963        45.82763         1.24785
C         56.48008        46.43033         1.80081
C         57.69011        48.99234         0.83676
C         56.56454        48.57752         1.49556
C         57.58119        50.19910         0.05347
C         56.38848        50.85014        -0.07983
C         59.24340        24.90851        -3.37864
C         58.10066        25.50638        -2.89555
C         59.36028        27.77622        -3.02590
C         58.08524        26.97907        -2.76149
C         59.44846        29.13538        -2.43265
C         58.31511        29.74122        -1.85338
C         59.70801        31.87156        -1.50044
C         58.42968        31.10816        -1.29910
C         59.63527        33.40261        -1.60284
C         58.29098        34.02045        -1.59427
C         59.42612        36.24321        -2.36673
C         58.21124        35.46990        -1.95024
C         59.47482        37.74711        -2.13752
C         58.28563        38.45617        -1.52296
C         59.71253        40.36339        -0.82499
C         58.44806        39.76237        -0.85611
C         59.88428        41.62958        -0.14735
C         58.69706        42.23151         0.47604
C         60.09277        44.39894         0.77946
C         58.80528        43.69641         0.91115
C         60.14903        45.84325         0.96350
C         58.86423        46.59362         0.91528
C         60.23711        48.73614         1.05870
C         58.92332        48.12429         0.80781
C         60.45972        25.64151        -3.56283
C         60.55354        26.98280        -3.33934
C         60.68766        29.85290        -2.51917
C         60.83077        31.13981        -2.09550
C         60.76074        34.16982        -2.18898
C         60.69125        35.47719        -2.49202
C         60.76884        38.42387        -1.94256
C         60.85148        39.65310        -1.37138
C         61.09586        42.30459        -0.04137
C         61.20038        43.63679         0.43093
C         61.33289        46.54845         1.00777
C         61.36421        47.97539         1.13471
O         31.66290        38.21862        -1.45417
O         42.47374        22.02860        -3.83335
O         29.06893        29.63240         5.28397
O         44.61288        55.64505        -1.61957
O         38.28937        18.70080         0.23722
O         47.16124        31.14844         2.51993
O         44.44495        28.86157        -1.35665
O         41.33693        52.19372        -0.92086
O         58.27068        27.68567        -4.02165
O         51.17769        25.75001         0.56983
O         26.68524        33.96112         2.93856
O         27.12078        35.80479        -2.75928
O         22.40651        28.25813         3.35003
O         30.59202        48.59019        -1.98832
O         55.52847        34.78943        -2.50156
O         46.49597        42.40184         3.73396
O         56.69350        47.62281         2.50443
O         37.76258        53.98461         0.96078
O         37.82760        44.83889         3.78943
O         37.89583        22.45190        -2.36853
O         39.01577        28.13554        -1.13635
O         46.40027        39.87714         3.72245
O         56.84870        26.89818        -0.60937
O         58.86988        42.60224         1.88574
O         28.83340        31.09239         5.30516
O         41.52979        56.33501         0.52735
O         39.88530        18.65071        -3.90821
O         42.04562        35.54360         3.96135
O         45.87732        53.43232         2.52014
O         45.35963        24.98318         0.65277
O         37.50519        35.41685         4.98434
O         51.46114        47.60475         3.25861
O         30.58265        33.90168         4.89545
O         53.75938        42.92499         2.44751
O         32.42422        37.45427         3.90576
O         45.29612        19.41207        -4.27715
O         54.05853        24.29772        -3.61685
O         31.88085        40.49989        -2.56074
O         34.90779        45.47639         2.10101
O         46.86129        46.44509         0.17591
O         47.65931        42.42835         0.12713
O         47.65091        20.37222        -3.68076
O         58.41407        35.82130        -3.34989
O         50.53544        30.45145        -1.61144
O         34.63336        52.01025        -3.29157
O         36.73089        42.51607         3.93892
O         43.56916        47.00387         3.81551
O         43.53605        39.99523         4.43955
O         60.03768        32.72190        -0.36715
O         41.48731        24.93440         0.79699
O         43.27831        33.43428         3.63135
O         36.26649        51.44223         0.94737
O         37.74952        32.23589         0.29573
O         58.80804        47.28218        -0.39795
O         35.45869        19.65947         1.00268
O         49.34778        48.96902         3.05945
O         33.88251        30.12312         0.79077
O         30.70367        46.83308        -5.14951
O         43.07041        30.94586         3.05717
O         28.24610        36.28541         2.47565
O         29.64282        36.03744        -0.79378
O         57.91407        31.29798         0.04902
O         42.18259        44.37630         4.57100
O         51.90959        44.63524        -0.10215
O         30.50546        49.36083        -5.49723
O         34.10172        24.81585         3.21288
O         31.80055        42.82899        -3.35603
O         33.85851        34.64225         5.18031
O         29.16234        25.76908         4.70655
O         29.77799        39.08193        -3.20147
O         36.06965        25.91096        -1.15884
O         26.24643        25.56904         4.31518
O         41.82767        51.50518         2.71614
O         39.29918        34.36423         0.94119
O         29.84469        28.29059         1.94046
O         39.68144        16.31285        -1.19422
O         28.79856        44.26393        -2.22516
O         57.51367        36.69963         0.05506
O         28.45339        44.39650        -5.89028
O         31.51734        22.66500         3.72191
O         52.94163        50.30798         2.52992
O         54.17613        47.65861         3.08482
O         31.61616        34.64874         1.61377
O         27.51798        41.95837        -2.13802
O         23.20821        31.72764         1.77556
O         58.51078        38.47637        -2.96765
O         49.57963        29.11480         1.62380
O         32.27838        36.62210         0.43007
O         54.98442        48.86744        -0.34379
O         33.10312        46.19865         0.52723
O         48.09349        39.87192        -0.71022
H         47.94022        40.83525        -0.87446
O         43.05534        53.67274        -1.57114
H         43.60050        54.22255        -2.18199
O         40.29491        32.13825        -0.51198
H         39.46402        32.51707        -0.87956
O         23.72714        38.77541        -2.32793
H         22.88248        39.16132        -2.64514
O         35.92993        40.14035         4.89506
H         35.90953        41.12172         4.98703
O         34.00009        27.73792        -0.05151
H         33.67809        28.63874        -0.29762
O         44.75112        49.04360        -0.20069
H         45.14752        48.21356        -0.54324
O         40.09869        45.58160         4.56789
H         39.14684        45.76692         4.74350
O         46.20480        27.29802        -2.10771
H         45.66082        28.10306        -2.33844
O         34.93652        37.31030         1.17402
H         34.20463        37.14381         0.53498
O         26.63870        37.96001         0.14530
H         25.89636        38.36037        -0.35750
O         34.84951        27.24099         3.43968
H         34.67979        26.45753         4.01652
O         27.50729        27.59404         5.26806
H         27.43011        26.67550         5.61480
O         28.05842        41.92152        -5.71298
H         28.56786        42.59989        -6.21842
O         42.76246        49.41000         3.94878
H         42.13772        50.14028         4.15621
O         44.16303        42.80114         4.87279
H         45.11581        42.87932         5.10292
O         38.45760        49.73483        -1.50259
H         39.41105        49.51059        -1.55544
O         35.93495        55.68477         0.31632
H         36.23373        55.15281         1.09119
O         39.43250        38.45759         5.25777
H         38.61829        38.69446         5.75164
O         39.93793        22.26508        -3.68768
H         40.68119        22.54546        -4.26920
O         46.04816        22.41924        -3.94115
H         46.35820        21.72017        -4.56178
O         35.34940        36.64974         5.55205
H         35.12393        35.86132         6.09463
O         40.76872        19.31683        -0.36454
H         40.20933        19.16357         0.43198
O         53.98418        35.30403         1.41334
H         54.05379        36.21197         1.78000
O         35.19878        23.15512        -1.93635
H         35.30578        24.08909        -2.23127
O         47.55473        20.92528        -0.14588
H         48.11411        21.34385         0.54219
O         28.20052        25.02414         1.23006
H         27.61288        24.48188         0.66099
O         38.45182        45.08277         0.18392
H         38.65742        45.73441        -0.52065
O         32.78993        23.10290        -0.57584
H         33.40050        23.04724        -1.35335
O         42.30707        54.16334         1.97061
H         42.17837        53.52453         2.71006
H         23.18264        23.37228         1.64620
H         20.89593        24.25064         1.88698
H         20.57668        26.60299         2.76016
H         21.01429        28.78587         1.24894
H         21.68953        30.12037        -0.74801
H         22.42760        31.69812        -2.17181
H         23.06804        33.60077        -3.58365
H         23.13953        35.41521        -4.43622
H         23.15768        37.74479        -5.14389
H         22.71402        39.84645        -4.96087
H         22.80870        42.13771        -5.78739
H         22.77451        43.95154        -6.13486
H         24.64482        47.79631        -6.13622
H         22.69036        46.37076        -6.56370
H         24.86416        22.66100         1.38317
H         26.08395        48.89499        -5.84011
H         26.88198        21.41159         1.93894
H         27.92874        50.38323        -5.42177
H         30.52440        19.28931         2.30089
H         28.55035        20.40201         2.93788
H         30.90495        53.10046        -3.34039
H         29.23493        51.69177        -4.42619
H         31.72336        18.64265         0.82019
H         32.28489        54.29079        -2.61508
H         33.37764        17.35964        -0.33838
H         34.12555        55.69474        -1.87590
H         37.24165        15.41563        -2.13245
H         35.14766        16.50602        -1.53776
H         37.95492        57.71096        -2.65542
H         35.86950        56.58557        -2.37504
H         38.58290        14.73961        -3.35190
H         39.55406        58.73766        -2.80410
H         42.49131        15.32681        -5.04738
H         40.30282        14.13171        -4.98150
H         43.83388        58.91511        -2.31028
H         41.70006        59.81961        -3.22665
H         44.06225        15.83476        -3.55906
H         45.23710        58.63159        -0.31137
H         46.07227        16.68686        -2.43915
H         47.30719        57.54890         0.43463
H         50.17127        18.50897        -1.34141
H         48.06872        17.42754        -2.07485
H         51.08760        55.15972        -0.06959
H         49.03730        56.47613         0.10784
H         51.83376        19.41776        -2.05064
H         52.53109        53.95825        -0.70668
H         53.94089        20.59222        -2.45982
H         54.56989        52.60846        -0.88822
H         57.71662        22.80949        -3.01878
H         55.67793        21.54624        -2.69022
H         58.50069        50.65570        -0.34021
H         56.36985        51.85358        -0.52654
H         59.27454        23.82565        -3.55819
H         60.28429        49.82051         1.23468
H         61.36365        25.07641        -3.83098
H         61.54077        27.46396        -3.35988
H         61.55821        29.35023        -2.96051
H         61.80961        31.63238        -2.16486
H         61.72465        33.65075        -2.28731
H         61.58416        35.98838        -2.88027
H         61.69338        37.91126        -2.24364
H         61.84577        40.10795        -1.26534
H         62.01499        41.83891        -0.42234
H         62.19266        44.10731         0.38989
H         62.29296        46.01401         1.00366
H         62.33615        48.45857         1.30892
