         260
 CSIRO Nanostructure Databank - Neutral Graphene Oxide Data Set
C         30.68896        32.24880        -2.17777
C         30.75138        33.47290        -1.97422
C         30.52224        35.76334         1.66396
C         30.57125        37.02734         1.59243
C         30.33110        40.21705         0.71875
C         30.27565        41.43533         0.48571
C         32.76971        29.18283        -1.77610
C         31.78948        29.88800        -2.04589
C         32.79208        31.86983        -1.02309
C         31.41236        31.19424        -1.41338
C         32.88710        33.22038        -0.78805
C         31.94472        34.21702        -1.47651
C         32.79575        35.82120         0.85555
C         31.68192        35.03345         1.29212
C         32.74562        37.24325         0.94692
C         31.56567        37.95875         1.29351
C         32.72164        40.22841         1.04929
C         31.45349        39.43631         1.27161
C         32.74372        41.55916         0.33225
C         31.39618        42.25291         0.00267
C         32.65657        44.34782         0.29362
C         31.62953        43.69071         0.08417
C         35.52231        27.38427        -1.33815
C         35.37889        28.84150        -1.22434
C         34.11122        29.63535        -1.38727
C         35.19175        31.59110        -0.09793
C         33.93455        30.97284        -0.65921
C         35.24959        33.07516        -0.01990
C         34.04363        33.81684        -0.10132
C         35.27652        35.79100         0.66813
C         34.03712        35.15350         0.40844
C         35.24121        37.22483         1.05296
C         34.01551        38.02593         0.55030
C         35.31354        40.21500         1.11485
C         34.00662        39.44837         1.15107
C         35.30490        41.67791         0.87244
C         34.06167        42.37531         0.30777
C         35.19753        44.64153         0.54143
C         33.94446        43.85542         0.94003
C         35.40293        45.98342         1.27616
C         37.70375        27.02029        -0.26191
C         36.46895        26.67817        -0.98390
C         37.69206        28.54501        -0.07916
C         36.50400        29.36708        -0.41573
C         37.73045        31.51973        -0.24719
C         36.47020        30.76954         0.16893
C         37.72152        33.00955        -0.16221
C         36.47856        33.74518         0.18015
C         37.81353        35.72146         1.07456
C         36.50985        35.12235         0.50236
C         37.87294        37.29228         1.08985
C         36.55847        38.02373         1.14397
C         37.81419        40.18854         0.78819
C         36.53841        39.45551         0.91337
C         37.80714        41.68844         0.89282
C         36.48172        42.36991         0.83293
C         37.81858        44.56100         1.00146
C         36.48883        43.85830         0.91109
C         37.83838        46.08228         0.84332
C         36.49320        46.55858         1.16122
C         40.30330        24.29951         0.22264
C         39.24008        24.88876         0.00845
C         40.33408        27.04055        -0.29838
C         39.00339        26.28127        -0.40318
C         40.32308        28.54966        -0.25520
C         39.01421        29.27728         0.03272
C         40.31403        31.46699        -0.51545
C         39.02319        30.77925        -0.03925
C         40.29082        33.00404        -0.41774
C         39.00898        33.77599        -0.18505
C         40.37874        35.87593         0.51502
C         39.04963        35.17642         0.33262
C         40.31508        37.32073         0.22711
C         39.12076        38.05774         0.62137
C         40.24418        40.30182         0.04266
C         38.94988        39.48568         0.07702
C         40.24627        41.67899         0.13795
C         39.04929        42.44528         0.51618
C         40.36000        44.56099         0.73913
C         39.06899        43.81178         0.67809
C         40.44253        46.05257         0.93186
C         39.12536        46.82176         0.82430
C         40.48909        48.79228         1.06475
C         39.38566        48.23711         1.12753
C         42.81135        24.43059         1.09468
C         41.67489        24.80111         0.24670
C         42.72523        27.21526         0.71218
C         41.63713        26.35542         0.06382
C         42.87150        28.62821         0.26464
C         41.60491        29.32037        -0.10463
C         42.87102        31.50155         0.13005
C         41.51702        30.80148         0.30666
C         42.87892        32.96962        -0.04986
C         41.58577        33.70610        -0.20173
C         42.86991        35.83122        -0.27065
C         41.64120        35.13914         0.20685
C         42.71532        37.25929        -0.66486
C         41.41469        37.99404        -0.44346
C         42.75910        40.18797        -0.48438
C         41.42981        39.54268        -0.44824
C         42.77825        41.67820        -0.38998
C         41.49840        42.44296        -0.19997
C         42.87179        44.53076         0.55721
C         41.55254        43.97622         0.00371
C         42.95562        46.03227         0.62480
C         41.75449        46.78657         0.72623
C         43.08901        48.75223         0.85208
C         41.79458        48.21927         0.88173
C         43.81854        25.12771         1.29441
C         45.19640        27.37043         1.59803
C         43.91076        26.59320         1.40501
C         45.27962        28.74393         0.83898
C         44.06960        29.31635         0.28912
C         45.37909        31.50172        -0.28594
C         44.06579        30.70007        -0.38079
C         45.36032        32.95884        -0.32605
C         44.07536        33.64487        -0.69609
C         45.32382        35.88511        -0.58366
C         44.04140        35.14756        -0.47294
C         45.26691        37.35735        -0.77560
C         43.94799        38.05061        -0.98062
C         45.15974        40.27440        -1.14267
C         43.91134        39.52605        -0.81685
C         45.25412        41.73975        -0.80969
C         44.12287        42.23610         0.08245
C         45.41023        44.50233         0.14966
C         44.13459        43.73433         0.40218
C         45.50858        45.84348         0.91795
C         44.24399        46.64024         0.71717
C         44.12677        48.02828         0.80057
C         47.48382        27.30084         1.15332
C         46.45211        26.59329         1.12650
C         47.71425        28.69334         1.29329
C         46.48847        29.42513         0.88740
C         47.75600        31.74817         0.68303
C         46.66924        30.79907         0.29510
C         47.86077        33.02156        -0.16612
C         46.56744        33.81711         0.02548
C         47.82172        35.88244        -0.91657
C         46.63524        35.18002        -0.67104
C         47.76968        37.28798        -1.32210
C         46.46911        38.00426        -1.35717
C         47.73918        40.18734        -1.32487
C         46.41955        39.50685        -1.44333
C         47.80164        41.66432        -1.03669
C         46.56728        42.39379        -0.74228
C         48.06297        44.36410        -0.11260
C         46.63584        43.81380        -0.41437
C         47.80320        45.84108        -0.00590
C         46.80789        46.42385         0.41926
C         50.09839        29.34751         2.07682
C         48.68731        29.35738         2.03627
C         49.43589        32.56490         2.40912
C         48.42157        31.63116         1.86537
C         49.69433        33.79911         1.57210
C         49.05199        33.93806         0.21572
C         50.34476        36.15678        -0.08085
C         49.14384        35.29029        -0.44127
C         50.78815        37.11326        -1.02657
C         48.84712        38.04087        -1.82050
C         50.09792        40.21290        -2.11118
C         48.89316        39.46974        -1.91063
C         50.23730        41.60032        -1.86000
C         48.92650        42.43036        -1.72482
C         50.36308        44.22513        -1.28110
C         49.08724        43.83452        -1.08138
C         50.85134        30.33067         2.42385
C         51.92700        32.72215         2.71552
C         51.10083        31.65460         2.47644
C         51.89106        33.99986         2.77950
C         50.89327        34.67693         1.90036
C         52.44413        36.47076         0.90078
C         51.25293        35.72841         0.93504
C         52.77444        37.44903         0.18142
C         51.99549        37.89575        -0.92148
C         52.92595        40.23417        -1.31818
C         52.13114        39.11157        -1.63937
C         52.60800        41.41434        -1.64179
C         51.51757        42.30041        -1.73600
C         51.48043        43.71068        -1.69780
O         48.16386        30.53094         2.67225
O         41.03865        33.57488        -1.54724
O         34.64387        39.74214         2.38894
O         38.08806        40.84919         2.06820
O         45.72639        44.64879        -1.25567
O         37.09614        44.18289         2.21238
O         50.02327        37.34201        -2.15809
O         43.17722        32.39464         1.25598
O         37.46497        27.55543         1.04099
O         39.06631        30.09606         1.23315
O         46.25423        38.68540        -2.63546
O         41.06618        38.77333        -1.64903
O         43.50718        43.91784         1.71663
O         41.27148        35.41943         1.59692
O         43.84288        30.53414        -1.80419
O         40.56332        45.13224         2.06850
O         43.17319        37.46658        -2.05498
O         34.15137        30.98242         0.77613
O         44.88525        41.31365        -2.15703
O         34.03471        38.13002        -0.81956
O         35.09860        29.65641        -2.42770
O         38.41485        46.54030        -0.40590
O         42.79315        27.10392         2.18649
O         37.80436        35.30556         2.38898
O         42.08786        25.42207        -0.97084
O         37.59297        32.26569        -1.46261
O         46.39796        30.82510        -1.11110
O         51.17229        39.41288        -2.61703
O         49.85635        34.09427        -0.99553
O         38.78988        37.85987         2.04824
O         32.13580        41.54981        -1.00995
O         48.11046        40.68313         0.02621
O         39.75965        26.58590        -1.57822
O         32.22185        35.36405        -1.67167
O         42.06721        42.20210        -1.54501
O         45.44141        36.87888         0.58623
O         49.58486        34.98041         2.45613
O         35.75098        37.55980         2.32407
O         38.84798        34.93213        -1.08663
O         32.05946        40.19503         2.35627
O         44.37494        41.55211         1.33831
H         44.01210        42.10939         2.06684
O         41.08416        29.00662        -1.42546
H         43.09307        29.91586        -1.95658
O         47.93211        32.69543        -1.54819
H         48.82675        32.93374        -1.88559
O         30.73529        30.95274        -0.20011
H         29.88283        30.51136        -0.39426
O         38.48675        39.36931        -1.28809
H         39.25245        39.07522        -1.84469
O         48.42824        43.89534         1.18370
H         47.85653        44.32660         1.85516
O         41.23769        30.84984         1.70351
H         41.80010        31.54611         2.11686
O         34.40630        42.55825        -1.07001
H         33.63878        42.26942        -1.62376
O         41.43459        44.59098        -1.30251
H         41.80573        43.96794        -1.97300
O         40.43626        31.18423        -1.90922
H         40.64953        32.01731        -2.38987
O         43.96393        33.47279        -2.13948
H         44.04713        32.50983        -2.34695
O         36.55977        30.64011         1.60123
H         35.68489        30.33863         1.93356
O         48.43193        42.60042        -3.07088
H         49.07026        43.14643        -3.57672
O         33.82235        43.76874         2.32658
H         34.13490        44.60550         2.73503
O         35.21898        44.90374        -0.83222
H         34.30846        45.11285        -1.13362
O         45.66727        45.53712         2.30013
H         45.50008        46.34288         2.83218
O         45.32169        27.67929         2.96618
H         44.83785        27.02012         3.50505
O         46.45136        34.09397         1.45141
H         45.83826        34.85055         1.58616
O         49.20715        32.84303         3.72927
H         49.57733        33.73339         3.93381
O         31.75130        33.69480         1.37875
H         30.90855        33.31978         1.70149
