         420
 CSIRO Nanostructure Databank - Neutral Graphene Oxide Data Set
C         27.85687        27.47223        -0.70736
C         27.84996        28.88763        -0.62241
C         26.62813        29.62109        -0.60764
C         27.85159        31.72806        -0.42007
C         26.63132        30.99087        -0.51111
C         27.86028        33.16020        -0.28973
C         26.65187        33.91189        -0.25419
C         27.87772        36.00334         0.06134
C         26.65837        35.27384        -0.07452
C         27.87531        37.41582         0.29457
C         26.68816        38.14159         0.49649
C         27.91951        40.20868         1.02598
C         26.69991        39.49370         0.79518
C         27.88369        41.59445         1.40158
C         26.69100        42.34956         1.46759
C         27.91810        44.46259         1.27857
C         26.69938        43.73556         1.39325
C         27.98582        45.66582         0.58090
C         30.29756        27.44051        -0.64165
C         29.04588        26.77223        -0.70897
C         30.31516        28.85926        -0.57553
C         29.08607        29.58980        -0.54971
C         30.32714        31.72268        -0.34877
C         29.08404        31.01645        -0.44550
C         30.33489        33.13036        -0.19348
C         29.09856        33.86221        -0.16816
C         30.35709        35.97961         0.21265
C         29.10534        35.27909        -0.00975
C         30.37273        37.34122         0.46501
C         29.16607        38.18989         0.18940
C         30.40501        40.21270         1.12070
C         29.15745        39.53996         0.87578
C         30.41337        41.57537         1.47032
C         29.14944        42.27577         1.68403
C         30.46348        44.63000         1.71754
C         29.16310        43.81962         1.73244
C         30.42845        45.76149         0.72794
C         29.24259        46.23749         0.23570
C         32.76425        24.58385        -0.59325
C         31.57430        25.29066        -0.59045
C         32.78892        27.40326        -0.68380
C         31.54879        26.70401        -0.64047
C         32.79622        28.85482        -0.63108
C         31.56181        29.57190        -0.53290
C         32.79900        31.69895        -0.34563
C         31.56297        30.98924        -0.40719
C         32.81610        33.11460        -0.18565
C         31.58203        33.83652        -0.06908
C         32.84689        35.93255         0.20076
C         31.59819        35.22738         0.16455
C         32.87381        37.32802         0.44484
C         31.62742        37.97989         0.98529
C         32.87166        40.14046         0.91490
C         31.64693        39.48487         0.93071
C         32.94246        41.55041         1.33445
C         31.67229        42.32596         1.66371
C         32.95363        44.48613         1.43778
C         31.72752        43.80441         1.54206
C         32.97143        45.88808         1.06145
C         31.73518        46.38961         0.31846
C         32.76280        48.63440         0.16582
C         31.64018        47.89215         0.30639
C         35.30021        23.10441        -0.77872
C         35.27479        24.50946        -0.72521
C         34.00956        25.24986        -0.67249
C         35.28735        27.36740        -0.86770
C         34.00183        26.66153        -0.71877
C         35.28890        28.87036        -0.81320
C         34.00968        29.57511        -0.61442
C         35.27626        31.69056        -0.38223
C         34.03008        30.98282        -0.44791
C         35.29334        33.09371        -0.26195
C         34.05868        33.81323        -0.16692
C         35.30232        35.95303        -0.08541
C         34.06887        35.23112        -0.02742
C         35.30551        37.36463         0.06488
C         34.08190        38.05026         0.35400
C         35.33236        40.18170         0.50085
C         34.10249        39.46682         0.58683
C         35.36041        41.59964         0.79592
C         34.17924        42.30175         1.10795
C         35.44837        44.21840         1.75816
C         34.19385        43.68391         1.45101
C         35.40511        46.41045         1.47897
C         34.13050        46.72747         0.92724
C         35.25175        48.77477        -0.01256
C         34.06241        48.02860         0.29712
C         35.23015        50.05949        -0.61394
C         37.74692        23.03641        -0.72129
C         36.49755        22.39183        -0.77104
C         37.76024        24.47736        -0.69874
C         36.52334        25.20024        -0.69420
C         37.74290        27.32048        -0.44204
C         36.55195        26.63059        -0.62554
C         37.75587        28.78032        -0.05221
C         36.53405        29.57843        -0.45788
C         37.79926        31.66397         0.00927
C         36.51608        30.94062        -0.32991
C         37.78030        33.14006        -0.31799
C         36.55031        33.82314        -0.27852
C         37.75689        35.98436        -0.35925
C         36.53515        35.25109        -0.25858
C         37.72994        37.40528        -0.31825
C         36.53164        38.09611        -0.05036
C         37.79682        40.24109         0.11659
C         36.54150        39.52184         0.15956
C         37.82670        41.63414         0.46475
C         36.60932        42.28161         0.82602
C         37.92647        44.24520         1.46176
C         36.66288        43.58794         1.38649
C         37.88416        46.44664         1.29489
C         36.60630        47.02509         1.05128
C         37.74515        48.88351        -0.07442
C         36.53386        48.20907         0.25636
C         37.67299        50.20700        -0.58495
C         36.41009        50.76246        -0.84515
C         40.27135        20.19132        -0.43503
C         39.04160        20.89988        -0.47260
C         40.25600        22.98886        -0.85469
C         38.98108        22.27577        -0.66209
C         40.25780        24.51175        -0.82398
C         38.97707        25.21015        -0.64829
C         40.23492        27.32453        -0.39650
C         38.98808        26.61382        -0.46586
C         40.25130        28.76444        -0.43615
C         39.03920        29.47283        -0.41662
C         40.26951        31.69888        -0.73167
C         38.99038        30.93455        -0.57982
C         40.27131        33.15748        -0.44763
C         39.00545        33.86033        -0.42974
C         40.24906        36.02074        -0.47481
C         39.00078        35.27808        -0.45021
C         40.23071        37.41150        -0.52491
C         38.95323        38.17683        -0.73280
C         40.24064        40.29631        -0.15660
C         39.00246        39.59140        -0.20556
C         40.25925        41.69658         0.13636
C         39.04213        42.37201         0.43602
C         40.24415        44.59313         0.53963
C         39.06967        43.76672         0.81624
C         40.20901        46.00644         0.43263
C         39.04517        46.86244         0.61216
C         40.21843        48.89695        -0.21080
C         39.00497        48.20358         0.09236
C         40.19610        50.24177        -0.62079
C         38.92396        51.05428        -0.61478
C         40.15052        52.70675        -2.00887
C         38.96916        52.15377        -1.64899
C         42.76219        20.14671        -0.31059
C         41.50075        20.83197        -0.52561
C         42.71996        22.96621        -0.54883
C         41.53672        22.27411        -0.62843
C         42.69625        24.39071        -0.06864
C         41.49877        25.20812        -0.48354
C         42.70245        27.33188        -0.13187
C         41.47373        26.60400        -0.31276
C         42.71742        28.73438        -0.27195
C         41.51787        29.44737        -0.49629
C         42.79407        31.66921        -0.34648
C         41.55012        30.92013        -0.69559
C         42.70707        33.11793         0.00278
C         41.45823        33.85775        -0.29042
C         42.73497        35.97223        -0.29406
C         41.49875        35.29420        -0.32975
C         42.78634        37.40891        -0.60076
C         41.46873        38.17738        -0.69114
C         42.70915        40.29555        -0.22463
C         41.48597        39.62050        -0.37515
C         42.71550        41.71517         0.01622
C         41.49007        42.42204         0.17161
C         42.71361        44.53643         0.20396
C         41.48281        43.86041         0.28987
C         42.72722        45.97068        -0.11305
C         41.39446        46.70427        -0.11542
C         42.69223        48.82856        -0.27194
C         41.46931        48.17692        -0.14911
C         42.68036        50.28851        -0.47939
C         41.41389        50.91437        -0.90117
C         42.65526        52.74546        -1.97361
C         41.41636        52.15760        -1.55814
C         43.94300        20.80519        -0.35941
C         45.26771        22.99525        -0.35193
C         44.02347        22.24904        -0.80642
C         45.20532        24.41254        -0.06038
C         44.01655        25.10486        -0.14181
C         45.22613        27.27893         0.31695
C         43.94147        26.56118         0.13608
C         45.21785        28.77004         0.27887
C         44.03945        29.48897        -0.34738
C         45.28041        31.65223         0.07814
C         43.95390        30.90903         0.27318
C         45.28684        33.08958        -0.01770
C         44.01448        33.84845         0.11621
C         45.19410        36.00025        -0.20920
C         43.99016        35.30659        -0.11830
C         45.22776        37.44001        -0.20107
C         44.01395        38.16210        -0.30402
C         45.19725        40.27348        -0.01901
C         43.97419        39.57523        -0.22658
C         45.20344        41.71919         0.06776
C         43.95880        42.41598         0.09663
C         45.18731        44.55593         0.23645
C         43.95657        43.83729         0.18729
C         45.17794        46.02245         0.38304
C         43.95662        46.75579         0.02572
C         45.23090        48.85148        -0.32515
C         43.96143        48.13412        -0.15569
C         45.24452        50.19330        -0.79498
C         43.98934        50.99198        -0.84302
C         43.86753        52.17502        -1.70046
C         47.73416        23.08731        -0.30763
C         46.49975        22.38753        -0.47143
C         47.77860        24.41912         0.04301
C         46.48528        25.11132         0.41576
C         47.76647        27.32683         0.25005
C         46.49951        26.56640        -0.09364
C         47.77874        28.72999         0.20002
C         46.51030        29.49985         0.21768
C         47.73273        31.65172        -0.32736
C         46.46587        30.95275        -0.07352
C         47.75965        33.11957        -0.19237
C         46.48491        33.78795        -0.14394
C         47.76566        35.99363        -0.28486
C         46.45581        35.24688        -0.35629
C         47.72355        37.43701         0.02086
C         46.45749        38.14319        -0.00971
C         47.63188        40.29323         0.45172
C         46.40651        39.55014         0.12497
C         47.67733        41.73820         0.18398
C         46.41670        42.44317         0.09651
C         47.66377        44.60086         0.07941
C         46.41426        43.87427         0.15342
C         47.73335        45.98054         0.09592
C         46.50554        46.77795         0.30401
C         47.69956        48.78967        -0.52200
C         46.47026        48.16839        -0.18499
C         47.66887        50.10763        -1.01297
C         46.46451        50.79294        -1.13634
C         50.25664        24.51371         0.30118
C         49.00562        25.16696         0.23267
C         50.20509        27.31974         0.59340
C         48.99187        26.60397         0.36829
C         50.20701        28.76134         0.55718
C         48.99881        29.43929         0.24903
C         50.25871        31.61839         0.19677
C         49.05062        30.86718        -0.09767
C         50.30356        33.07337        -0.21155
C         48.97461        33.80612        -0.07251
C         50.16746        35.94187         0.30793
C         49.00015        35.23558         0.02251
C         50.18790        37.37325         0.26794
C         48.93066        38.08561         0.20713
C         50.16886        40.27120         0.15539
C         48.95044        39.53337         0.45968
C         50.14888        41.67008         0.13910
C         48.88900        42.39115         0.11715
C         50.14138        44.55517         0.23830
C         48.91914        43.84462        -0.28016
C         50.24200        45.97764         0.06163
C         48.99545        46.68801        -0.08963
C         50.20967        48.75364        -0.47217
C         48.97212        48.07475        -0.35228
C         51.43243        25.20585         0.54030
C         52.66088        27.33576         0.96632
C         51.45117        26.61554         0.71610
C         52.58749        28.79973         1.34186
C         51.39173        29.51097         0.77675
C         52.65489        31.66535         0.77722
C         51.41348        30.93244         0.61661
C         52.64725        33.09760         0.70107
C         51.46693        33.78699         0.42404
C         52.68029        35.98832         0.60071
C         51.38805        35.23329         0.81951
C         52.66835        37.38451         0.42040
C         51.41198        38.07300         0.29802
C         52.71769        40.26820        -0.14093
C         51.40950        39.51265        -0.04078
C         52.69805        41.81125        -0.18867
C         51.36801        42.39605         0.32083
C         53.08305        44.80220         0.34003
C         51.21530        43.75996         0.65278
C         52.79343        46.03515        -0.28943
C         51.48742        46.68281        -0.14161
C         51.41265        48.07379        -0.39421
C         55.09367        27.41114         1.23415
C         53.91978        26.70034         1.04360
C         55.09811        28.84507         1.23443
C         53.87948        29.54891         1.13860
C         55.11267        31.68670         1.09872
C         53.87683        30.96574         1.02002
C         55.10494        33.13349         1.03833
C         53.88864        33.83825         0.88801
C         55.13591        35.98515         0.76125
C         53.89948        35.26886         0.75413
C         55.14518        37.41238         0.57557
C         53.91970        38.12518         0.39420
C         55.18744        40.24135         0.17898
C         53.95313        39.53659         0.21752
C         55.20272        41.65862        -0.08421
C         54.00054        42.45507         0.38726
C         55.08142        44.41260        -0.92665
C         54.08713        43.91757        -0.04105
C         54.93206        45.73869        -1.43387
C         53.80515        46.50349        -1.17386
C         56.31928        29.57212         1.26962
C         56.31853        30.95238         1.23079
C         56.31926        33.87907         1.10374
C         56.33482        35.24686         0.96403
C         56.36870        38.14155         0.53308
C         56.39387        39.50025         0.32314
C         56.25080        42.26392        -0.78805
C         56.19263        43.58294        -1.24508
O         41.96252        46.17306        -1.36470
O         29.06468        43.05861         2.95645
O         45.76652        29.29037         1.52363
O         52.23102        44.39838         1.37506
O         43.40157        51.10931         0.50102
O         44.52672        26.82332         1.52148
O         35.50296        45.43427         2.46366
O         48.27356        39.91089         1.71867
O         38.00582        45.41992         2.23371
O         47.17609        35.64640        -1.58572
O         32.50158        41.75059         2.73722
O         39.41638        31.39958        -1.90198
O         42.51199        31.39462        -1.74720
O         35.36673        28.16387        -2.11572
O         43.24705        33.44830         1.31859
O         48.50152        31.13529        -1.47275
O         42.20778        37.78645        -1.90163
O         40.31607        23.75282        -2.11186
O         52.08789        39.73398        -1.35905
O         45.84510        46.53998         1.58861
O         46.44012        26.52602        -1.54624
H         47.26223        26.10767        -1.87846
O         31.94114        45.97751        -1.08821
H         32.71860        46.47829        -1.41714
O         53.91438        42.32756         1.82345
H         54.63910        42.84839         2.22581
O         30.55208        45.24769         3.03916
H         30.32573        44.54263         3.68770
O         44.40331        29.58237        -1.74217
H         43.71103        30.12804        -2.19479
O         37.98433        31.56486         1.46928
H         37.27174        32.08693         1.89654
O         44.15842        22.19663        -2.27649
H         43.31564        21.84725        -2.63805
O         43.62138        30.79703         1.66513
H         44.37536        30.34660         2.11646
O         29.28174        38.53883        -1.26661
H         29.18053        37.70049        -1.76784
O         52.66483        42.19098        -1.58165
H         52.19947        41.46561        -2.06493
O         38.84216        38.33173        -2.20390
H         39.00974        37.45343        -2.60792
O         50.57370        33.05902        -1.66600
H         49.87920        32.47780        -2.06240
O         38.91548        51.75200         0.69111
H         39.76379        52.24090         0.76252
O         42.47105        24.24426         1.40498
H         42.72744        25.09558         1.82519
O         52.37747        28.80427         2.82012
H         53.14453        28.33736         3.21622
O         31.63284        37.67560         2.44362
H         32.38217        38.16931         2.84139
O         46.47624        25.09356         1.86119
H         45.69499        25.62395         2.15785
O         37.70367        28.76402         1.42742
H         37.86178        29.69683         1.72487
O         48.99412        43.84478        -1.75284
H         49.09903        44.77748        -2.03852
O         51.22043        35.20335         2.29875
H         51.23941        36.13336         2.61168
H         26.89990        26.93429        -0.76844
H         25.67700        29.07300        -0.67096
H         25.66926        31.51954        -0.49866
H         25.68461        33.40438        -0.36253
H         25.69706        35.80325        -0.04873
H         25.71475        37.63473         0.44509
H         25.73847        40.00478         0.93015
H         25.71853        41.84091         1.42557
H         25.74974        44.27171         1.25072
H         27.06238        46.12478         0.20037
H         29.01011        25.67700        -0.77643
H         29.24214        47.08422        -0.46568
H         32.72212        23.48783        -0.54549
H         30.63537        24.72436        -0.53702
H         32.68783        49.72311         0.03386
H         30.65398        48.37610         0.29007
H         34.36228        22.53532        -0.82249
H         34.27335        50.53980        -0.85907
H         36.45114        21.29500        -0.81166
H         36.33904        51.78689        -1.23674
H         40.24426        19.10305        -0.27886
H         38.11633        20.32171        -0.33991
H         40.17601        53.57285        -2.68754
H         38.02829        52.59976        -2.00191
H         42.73315        19.07599        -0.05656
H         42.61244        53.64218        -2.60964
H         44.87888        20.25557        -0.17923
H         44.76771        52.57849        -2.18547
H         48.66070        22.53668        -0.52628
H         46.55493        21.33366        -0.77945
H         48.59653        50.62147        -1.29581
H         46.48303        51.83130        -1.49393
H         50.30371        23.42082         0.19811
H         50.23151        49.83885        -0.63627
H         52.36717        24.63313         0.60669
H         52.34591        48.64118        -0.51735
H         56.05318        26.87865         1.29527
H         53.98859        25.60922         0.92979
H         55.69988        46.12734        -2.11847
H         53.68319        47.46815        -1.68718
H         57.26859        29.02237         1.34321
H         57.28117        31.47699         1.28737
H         57.27512        33.36008         1.25096
H         57.30183        35.76431         1.01016
H         57.32407        37.61607         0.65992
H         57.35733        40.02833         0.29996
H         57.11249        41.64668        -1.08419
H         56.99957        43.97700        -1.87841
