         638
 CSIRO Nanostructure Databank - Neutral Graphene Oxide Data Set
C         23.00803        69.79118        -0.94724
C         23.00494        71.19463        -1.09566
C         21.80619        71.91932        -1.33914
C         23.03026        74.01615        -1.42808
C         21.83204        73.30279        -1.50403
C         25.43123        65.54070        -0.37343
C         25.40611        66.95674        -0.35986
C         24.21848        67.66718        -0.60027
C         25.43938        69.81364        -0.58510
C         24.20103        69.08514        -0.69327
C         25.44683        71.21132        -0.79885
C         24.25058        71.90962        -1.03689
C         25.46074        74.06967        -1.03554
C         24.26066        73.34974        -1.19554
C         27.94271        61.33434        -0.46903
C         27.85774        62.66277        -0.12349
C         26.65817        63.41070        -0.32203
C         27.84504        65.53614         0.15557
C         26.61813        64.80896        -0.16152
C         27.80329        66.96839         0.21087
C         26.63534        67.68527        -0.09564
C         27.84926        69.85294        -0.05825
C         26.64919        69.11784        -0.23443
C         27.91857        71.25039        -0.30512
C         26.76096        71.92447        -0.99754
C         27.82622        74.11601        -0.41474
C         26.70125        73.41687        -0.77402
C         30.32192        57.01099         0.37009
C         30.29837        58.41133         0.12906
C         29.14242        59.13732        -0.06839
C         30.38634        61.28683         0.14749
C         29.23393        60.57126        -0.53054
C         30.31345        62.67578         0.46169
C         28.98347        63.35235         0.62145
C         30.27718        65.54466         0.62706
C         29.03632        64.84789         0.40147
C         30.29474        66.97638         0.66551
C         29.01292        67.67469         0.64768
C         30.33591        69.86699         0.34894
C         29.03305        69.20874         0.51221
C         30.34012        71.27395         0.11482
C         29.09146        71.96193        -0.06344
C         30.36436        74.10182        -0.26131
C         29.06165        73.45530         0.12951
C         32.80563        52.72180         0.37442
C         32.77032        54.13612         0.30756
C         31.54985        54.85061         0.36539
C         32.79088        56.95797         0.36761
C         31.53730        56.26255         0.37209
C         32.74306        58.40914         0.73491
C         31.62932        59.12439        -0.05236
C         32.72825        61.22870         1.02639
C         31.54818        60.57490         0.35261
C         32.74632        62.71364         0.81359
C         31.50742        63.40102         0.73357
C         32.69649        65.56467         1.32136
C         31.47486        64.83074         0.83638
C         32.74069        67.01361         0.88076
C         31.51910        67.70729         0.69628
C         32.78853        69.82820         0.29058
C         31.53468        69.14210         0.46569
C         32.80239        71.26213         0.05194
C         31.56849        71.97577        -0.00184
C         32.82775        74.16674        -0.49798
C         31.53854        73.41600        -0.23545
C         35.33020        48.49427         0.54895
C         35.28540        49.90231         0.38780
C         34.06556        50.60420         0.43336
C         35.25594        52.73735         0.11609
C         34.02280        52.01406         0.31050
C         35.23816        54.15557         0.05144
C         34.00801        54.85727         0.17338
C         35.25977        57.01279         0.11680
C         34.00661        56.28439         0.21297
C         35.26364        58.44373         0.27369
C         34.04561        59.14929         0.55806
C         35.23843        61.28629         0.63812
C         34.02680        60.52727         0.71080
C         35.22763        62.69160         0.78877
C         33.97817        63.43318         0.89632
C         35.24696        65.55616         1.34320
C         33.97404        64.82009         1.04786
C         35.22280        67.02422         0.95698
C         33.97529        67.70570         0.78710
C         35.27484        69.74251         0.15907
C         33.98475        69.09599         0.42169
C         35.30589        71.27236        -0.06504
C         34.02920        71.98307        -0.02188
C         35.28083        74.08243        -0.01085
C         34.07446        73.40673        -0.10705
C         37.79638        44.29085         1.34788
C         37.81016        45.73304         0.91199
C         36.60730        46.40213         0.83115
C         37.78289        48.50439         0.33459
C         36.54957        47.80089         0.55018
C         37.74639        49.92625         0.08514
C         36.51451        50.62197         0.16264
C         37.69263        52.75680        -0.29676
C         36.48831        52.03966         0.00600
C         37.65133        54.16294        -0.42943
C         36.45656        54.87427        -0.18492
C         37.70666        57.03253        -0.27711
C         36.45453        56.31597        -0.14857
C         37.71481        58.45416        -0.08487
C         36.47921        59.16439         0.18462
C         37.68052        61.31687         0.34843
C         36.47037        60.58442         0.39106
C         37.70582        62.71087         0.55933
C         36.45935        63.42796         0.74456
C         37.72148        65.54501         0.72774
C         36.46024        64.81543         0.84879
C         37.72939        67.01833         0.89510
C         36.42941        67.73818         0.94487
C         37.75208        69.83227         0.67529
C         36.50245        69.10916         0.62270
C         37.76477        71.29061         0.49110
C         36.55870        71.98544         0.23163
C         37.73915        74.11993         0.37043
C         36.52398        73.40569         0.22387
C         40.39280        40.09067         1.51637
C         40.38039        41.49363         1.37337
C         39.15140        42.22212         1.39490
C         40.32823        44.31377         0.92772
C         39.12228        43.58693         1.20824
C         40.30425        45.71383         0.69135
C         39.04692        46.42554         0.68537
C         40.28499        48.61238         0.38801
C         39.00686        47.81024         0.41262
C         40.16975        49.81205        -0.55130
C         38.93571        50.63129        -0.24738
C         40.15027        52.70830        -0.78481
C         38.92557        52.01868        -0.45473
C         40.10209        54.13655        -1.13592
C         38.78244        54.91639        -1.09025
C         40.14616        57.05262        -0.62097
C         38.90413        56.35282        -0.59172
C         40.16841        58.47404        -0.38791
C         38.93267        59.15184        -0.19268
C         40.20930        61.33629         0.05367
C         38.91103        60.61948        -0.07691
C         40.22955        62.65238         0.79368
C         38.94619        63.42615         0.66360
C         40.21988        65.56265         0.89660
C         38.98819        64.80423         0.82823
C         40.22759        66.97906         1.09920
C         38.94178        67.71521         1.46306
C         40.15058        69.93066         1.30702
C         38.91902        69.18452         1.07206
C         40.22011        71.37909         0.99384
C         38.97011        72.03698         0.65950
C         40.20926        74.28566         0.67746
C         38.94806        73.45512         0.54791
C         42.69012        35.75077         1.19103
C         42.70965        37.15549         1.08027
C         41.54874        37.92399         1.32427
C         42.83157        40.01675         1.14402
C         41.58400        39.33233         1.34582
C         42.89481        41.50432         1.37764
C         41.59080        42.21656         1.16723
C         42.79261        44.29210         0.55337
C         41.57243        43.59514         0.89808
C         42.76176        45.67385         0.25314
C         41.52529        46.40515         0.35838
C         42.70423        48.47567        -0.27111
C         41.52025        47.79056         0.09614
C         42.66051        49.92040        -0.46908
C         41.44768        50.61285        -0.53814
C         42.64450        52.75715        -0.80045
C         41.39302        52.02942        -0.73493
C         42.65592        54.17018        -0.84129
C         41.41600        54.91352        -1.07764
C         42.61582        57.05074        -0.68060
C         41.38982        56.36728        -0.80499
C         42.64497        58.47519        -0.50590
C         41.42539        59.17683        -0.35334
C         42.67840        61.27860         0.01694
C         41.48434        60.58715        -0.04527
C         42.73599        62.70175         0.53792
C         41.42582        63.44604         0.24985
C         42.66721        65.58249         0.63820
C         41.45181        64.89149         0.69153
C         42.67947        67.00468         0.78742
C         41.43677        67.67601         1.05159
C         42.65900        69.91378         0.97313
C         41.44582        69.13017         1.32978
C         42.70607        71.35606         1.43669
C         41.42287        72.06870         1.04033
C         42.70153        74.12897         0.63027
C         41.49466        73.48722         0.77426
C         45.14522        32.90139         1.13563
C         43.90598        33.58724         1.14687
C         45.03274        35.65655         0.40579
C         43.84027        34.97041         0.93458
C         45.11059        37.11529         0.54073
C         43.96881        37.84185         0.81760
C         45.21767        39.99543         0.55947
C         44.00732        39.30294         0.86878
C         45.23667        41.41677         0.48472
C         44.05522        42.17325         0.69834
C         45.20003        44.23183        -0.05319
C         44.01955        43.55818         0.42642
C         45.16179        45.61322        -0.33058
C         43.95964        46.35160        -0.16525
C         45.16404        48.48428        -0.64988
C         43.93089        47.76781        -0.40659
C         45.14832        49.91685        -0.67798
C         43.89836        50.63749        -0.61671
C         45.14721        52.76798        -1.05491
C         43.87375        52.03256        -0.74395
C         45.11562        54.22387        -0.68723
C         43.88202        54.91019        -0.74384
C         45.09566        57.04348        -0.73616
C         43.86517        56.33501        -0.70860
C         45.11046        58.48633        -0.71996
C         43.90219        59.17735        -0.52331
C         45.06762        61.35481        -0.55579
C         43.91774        60.62233        -0.33532
C         45.02269        62.85890        -0.69258
C         43.88827        63.51961         0.02398
C         45.13414        65.62351         0.22239
C         43.89745        64.88372         0.28062
C         45.15013        67.02845         0.52046
C         43.91207        67.70415         0.69734
C         45.20499        69.88559         0.91254
C         43.93521        69.17174         0.70993
C         45.16991        71.29690         0.96885
C         43.97588        72.02017         0.96091
C         45.14357        74.03117         0.19258
C         43.98060        73.43230         0.63358
C         46.33671        33.52142         0.82527
C         47.60802        35.64530         0.10106
C         46.34899        34.87038         0.27932
C         47.63865        36.99435         0.11245
C         46.46045        37.79145         0.65191
C         47.71718        39.89160         0.30278
C         46.40188        39.19690         0.04731
C         47.72123        41.39550         0.26130
C         46.44049        42.12848         0.13513
C         47.67874        44.10474        -0.74921
C         46.42220        43.48110        -0.15819
C         47.68428        45.61479        -0.68657
C         46.36224        46.29130        -0.95168
C         47.64322        48.44918        -0.71056
C         46.39473        47.78036        -0.73611
C         47.69075        49.94253        -0.88231
C         46.36883        50.63985        -0.70026
C         47.62414        52.74593        -0.46241
C         46.39579        52.03552        -0.65150
C         47.57483        54.22286        -0.17916
C         46.32213        54.93507        -0.61282
C         47.59864        57.03981        -1.07325
C         46.31853        56.33373        -0.71438
C         47.58424        58.52838        -0.82699
C         46.37068        59.19713        -0.80549
C         47.56415        61.43389        -0.82589
C         46.28955        60.67765        -1.11976
C         47.55169        62.79465        -0.59954
C         46.33424        63.54877        -0.41695
C         47.58480        65.69655        -0.10883
C         46.33380        64.89921        -0.06169
C         47.61175        66.90895         0.79930
C         46.38033        67.76606         0.66466
C         47.68925        69.90037         1.08928
C         46.42150        69.15230         0.92662
C         47.71230        71.26363         0.98413
C         46.44948        72.09150         1.05681
C         47.69597        73.97890        -0.04550
C         46.40445        73.20808         0.00193
C         48.85938        37.72747        -0.43527
C         50.13359        39.89010        -0.13334
C         48.96478        39.18752        -0.04471
C         50.17434        41.34522        -0.08831
C         48.98308        42.05726        -0.03555
C         50.19872        44.15018        -0.61765
C         48.93687        43.55357        -0.04592
C         50.16923        45.61621        -0.86725
C         48.86474        46.32230        -0.69468
C         50.12827        48.48002        -0.39102
C         48.86847        47.76683        -0.65260
C         50.08824        49.87189        -0.12146
C         48.77220        50.58385        -0.01177
C         50.08649        52.79435        -0.21162
C         48.83236        52.08115        -0.25471
C         50.10405        54.21356        -0.35063
C         48.85697        54.96263        -0.46552
C         50.09963        57.09798        -0.36466
C         48.83639        56.31981        -0.60588
C         50.07020        58.55026        -0.79314
C         48.85854        59.21997        -0.90511
C         50.14878        61.40335        -0.79629
C         48.84064        60.69736        -1.03479
C         50.12181        62.78528        -0.26116
C         48.82096        63.49755        -0.26782
C         50.15367        65.65421        -0.05321
C         48.87243        64.97939        -0.32641
C         50.09480        67.15937        -0.01830
C         48.94182        67.67819         0.83800
C         50.30516        69.90115         1.21212
C         48.97053        69.13881         1.16484
C         50.25019        71.32379         0.71953
C         48.98929        72.08929         1.04507
C         50.13837        74.06571         0.01540
C         48.90965        73.40113         0.27668
C         51.42822        42.06008        -0.16305
C         52.66210        44.21173        -0.29442
C         51.47395        43.43865        -0.34078
C         52.67535        45.61109        -0.41605
C         51.47330        46.40083        -0.93383
C         52.57096        48.37021         0.33337
C         51.35375        47.78541        -0.35229
C         52.60283        49.90288         0.33963
C         51.29825        50.64233         0.17521
C         52.56199        52.76092        -0.29192
C         51.32408        52.09202        -0.13610
C         52.55273        54.16081        -0.56554
C         51.33619        54.87192        -0.54748
C         52.60696        57.08911        -0.91572
C         51.30775        56.32532        -0.85441
C         52.57631        58.53658        -0.67620
C         51.35115        59.24456        -0.72343
C         52.59925        61.36333        -0.37329
C         51.39450        60.65426        -0.59377
C         52.59272        62.82806        -0.26454
C         51.39284        63.53223        -0.24055
C         52.61290        65.69541        -0.11821
C         51.35412        64.96489        -0.08099
C         52.61892        67.07946        -0.07968
C         51.42231        67.82543         0.25758
C         52.82018        69.83367         0.78277
C         51.48664        69.13090         0.65512
C         52.71379        71.32439         0.48353
C         51.43063        72.00125         0.51364
C         52.59500        74.16275         0.20095
C         51.40474        73.45216         0.23845
C         53.87196        46.32506        -0.24662
C         55.05220        48.46562        -0.11576
C         53.87678        47.73548        -0.10030
C         55.07774        49.90208        -0.04533
C         53.84559        50.62509         0.02546
C         55.06985        52.70023        -0.30238
C         53.83142        52.02703        -0.19400
C         55.13293        54.12655        -0.64002
C         53.81288        54.89071        -0.83746
C         55.02340        57.05907        -0.41596
C         53.85284        56.35610        -0.70477
C         55.01978        58.47200        -0.33759
C         53.80522        59.21289        -0.46625
C         55.07618        61.32952        -0.26510
C         53.81763        60.63932        -0.32417
C         55.09305        62.78240         0.13311
C         53.82715        63.55252        -0.14695
C         55.10493        65.69753        -0.09586
C         53.85667        64.94872        -0.15464
C         55.13246        67.06895        -0.22219
C         53.84702        67.81632        -0.52661
C         55.11605        69.99911        -0.41555
C         53.90447        69.21965        -0.04226
C         55.14306        71.39044         0.15105
C         53.89345        72.04588         0.37566
C         55.15169        74.22518         0.39668
C         53.86234        73.52253         0.70371
C         56.29424        50.60094        -0.06650
C         57.53194        52.75242        -0.06161
C         56.31762        52.01874        -0.12016
C         57.55125        54.17928        -0.06019
C         56.33768        54.86903        -0.30710
C         57.55110        57.03685        -0.27674
C         56.26730        56.32861         0.03393
C         57.49974        58.47346        -0.68928
C         56.31243        59.18129        -0.01405
C         57.54210        61.38529        -0.45806
C         56.28037        60.66226        -0.29610
C         57.56159        62.76224        -0.53831
C         56.26804        63.54017        -0.49816
C         57.63262        65.67954        -0.27475
C         56.39498        64.93766         0.14134
C         57.62467        67.10193        -0.16437
C         56.37660        67.81744        -0.17557
C         57.61379        69.93981        -0.05622
C         56.39418        69.22109        -0.15755
C         57.61001        71.37555         0.07220
C         56.35097        72.08016         0.19649
C         57.61596        74.20521         0.33124
C         56.33869        73.53221         0.32344
C         58.75395        54.93496         0.09997
C         59.99626        57.09963        -0.10285
C         58.76807        56.35100        -0.09705
C         60.03391        58.50152        -0.23667
C         58.78824        59.23072        -0.45652
C         60.06233        61.31059        -0.72720
C         58.77598        60.60217        -0.53118
C         60.06507        62.78648        -0.96889
C         58.74865        63.55156        -1.06568
C         60.06451        65.62774        -0.46222
C         58.83114        64.96958        -0.51769
C         60.10705        67.02909         0.10221
C         58.84466        67.81650        -0.12791
C         60.10243        69.95083         0.00216
C         58.85246        69.22323        -0.04753
C         60.08705        71.36984         0.11162
C         58.82896        72.07696         0.17718
C         60.07572        74.30730         0.51699
C         58.80279        73.51682         0.31719
C         61.23856        59.22820        -0.06693
C         62.48869        61.36131        -0.24557
C         61.31557        60.63361        -0.29882
C         62.61488        62.75843        -0.82542
C         61.31677        63.53701        -0.75785
C         62.58851        65.65836        -0.78848
C         61.29570        64.90922        -0.64409
C         62.53408        67.10478        -0.39910
C         61.36745        67.79519        -0.21947
C         62.54290        69.99313        -0.19284
C         61.34010        69.25121        -0.11530
C         62.54327        71.39105        -0.03932
C         61.32655        72.08523         0.13923
C         62.54276        74.15626         0.62753
C         61.35133        73.51299         0.38604
C         63.76223        63.54725        -0.23813
C         64.95089        65.67293         0.13468
C         63.77723        64.90933        -0.23474
C         65.03151        67.04098        -0.02578
C         63.83423        67.79973        -0.47270
C         65.06834        69.98043         0.05807
C         63.83172        69.29126        -0.38296
C         65.06651        71.33582         0.19132
C         63.84611        72.15589        -0.18032
C         64.95338        74.06921         1.04387
C         63.80691        73.48466         0.54814
C         66.21514        67.78780         0.29282
C         67.44902        69.86510         0.75068
C         66.25821        69.17402         0.32717
C         67.49511        71.23506         0.87279
C         66.36647        72.08907         0.34395
C         67.32508        73.95922         1.68350
C         66.22061        73.40683         1.06885
C         68.63145        71.91184         1.43369
C         68.55149        73.23432         1.79565
O         49.61905        61.25619        -2.16058
O         50.09631        44.65002        -1.98683
O         40.82250        69.52979         2.58275
O         48.15971        65.65421        -1.44349
O         60.18943        61.84573        -2.12340
O         45.47203        35.09878        -0.88313
O         49.13831        68.09290         2.21917
O         40.81556        54.48220        -2.37508
O         43.07718        69.74456        -0.39936
O         63.99956        68.61708        -1.69519
O         49.36922        62.96684         1.00055
O         37.86111        66.49976        -0.46667
O         51.90609        50.41268         1.54592
O         62.89221        65.67201        -2.28986
O         47.76648        40.63162         1.55024
O         51.83953        56.67917        -2.14184
O         39.51992        61.35526        -1.23095
O         28.81227        68.56225         1.80839
O         54.56949        54.40620        -1.99400
O         35.40192        70.32835        -1.18367
O         42.78925        71.34181         2.89202
H         43.05328        72.23825         3.18753
O         49.72703        67.64472        -1.35093
H         50.13837        67.06291        -2.02403
O         40.09366        75.13821         1.83589
H         40.00970        74.56546         2.62576
O         32.79546        75.46224         0.10959
H         32.68845        75.34789         1.07573
O         44.77032        63.07737        -2.15149
H         44.65189        64.04264        -2.28917
O         55.18417        62.66076         1.58082
H         55.45961        63.53237         1.95549
O         48.34983        50.42179         1.38250
H         49.12162        50.62355         1.95355
O         46.70759        37.97264         2.07471
H         46.77236        37.08875         2.49177
O         28.96312        73.65065         1.59660
H         29.70257        73.15152         2.00478
O         43.17852        41.64188         2.83745
H         44.02980        41.18202         3.00552
O         35.36163        65.54755         2.82128
H         34.44115        65.63466         3.17480
O         46.17248        46.10680        -2.42501
H         46.79118        46.72569        -2.87185
O         57.22370        58.52464        -2.12209
H         57.95429        58.06908        -2.59071
O         47.67264        56.92896        -2.54638
H         47.10446        57.63112        -2.93114
O         62.92644        62.54419        -2.24092
H         62.09717        62.19995        -2.65082
O         55.08678        70.19840        -1.88047
H         54.69843        69.37629        -2.27462
O         63.99158        72.47758        -1.59949
H         64.92911        72.76680        -1.72076
O         27.05387        71.77764        -2.43638
H         26.99965        70.82237        -2.65195
O         53.23176        69.73879         2.19771
H         52.43062        69.98983         2.72293
O         56.57773        64.81765         1.59705
H         56.75606        65.71734         1.94547
O         36.76168        43.56389         0.66770
H         36.96734        43.56619        -0.28947
O         32.38250        58.39839         2.14182
H         32.44885        59.32641         2.49043
O         40.45873        49.16045         1.73050
H         40.54411        48.40959         2.35454
O         52.41267        47.92391         1.72058
H         51.99474        48.67995         2.20198
O         46.27418        39.06016        -1.39644
H         45.44147        38.57455        -1.58173
O         46.12129        60.70804        -2.58190
H         45.72026        61.58452        -2.80581
O         32.51642        61.07133         2.50044
H         31.70801        61.58100         2.72938
O         42.97426        62.61010         1.96956
H         42.17177        62.20077         2.37716
O         38.81949        67.66186         2.91220
H         39.53056        68.24696         3.27184
O         41.30957        63.48070        -1.19066
H         40.38260        63.69486        -1.42974
O         48.76005        37.67680        -1.87393
H         47.93019        38.15098        -2.11822
O         46.43397        72.70900         2.37349
H         47.37335        72.87007         2.64387
O         47.68733        43.69545        -2.13770
H         47.07347        44.30413        -2.61311
O         47.48108        54.28760         1.30044
H         48.21171        53.74276         1.66473
O         60.11041        75.43280        -0.37831
H         60.20838        75.09176        -1.29103
O         66.74436        72.45461        -1.04348
H         67.00111        71.62354        -1.49908
O         40.37926        62.33575         2.20975
H         40.15021        63.13672         2.72770
O         29.60194        60.50245        -1.97131
H         29.61307        61.42227        -2.31316
O         58.48851        63.74470        -2.49824
H         58.88663        62.96302        -2.95336
O         50.27667        57.13418         1.09673
H         49.45130        57.48248         1.49579
O         48.05375        50.14536        -2.28177
H         47.71584        51.02214        -2.56555
O         39.99856        49.27590        -1.89562
H         39.93596        50.03121        -2.51707
O         50.58042        70.08071         2.66524
H         50.31797        69.22668         3.08944
O         53.76352        73.57330         2.18495
H         53.01392        72.99277         2.44195
O         51.76279        46.61616        -2.35219
H         51.39296        45.83271        -2.82518
O         32.57715        65.61603         2.81968
H         31.74022        66.08927         3.02232
O         60.16273        66.83668         1.57604
H         60.13810        67.72911         1.98361
O         53.76215        67.83776        -2.02373
H         53.98031        66.93304        -2.33831
O         56.57138        59.07035         1.41726
H         55.87740        59.57664         1.89083
O         38.33302        55.05060        -2.47619
H         39.14959        55.14696        -3.02144
O         48.88150        43.98433         1.34626
H         48.36535        43.32378         1.85593
O         46.28203        72.54381        -1.29794
H         46.18164        73.23553        -1.98473
O         62.10622        66.71109        -2.90594
H         62.71126        67.49942        -2.86723
O         31.98271        59.07062        -1.45706
H         31.23568        59.49751        -1.94775
O         49.14490        72.48144         2.46276
H         49.55575        71.70616         2.92086
O         47.46803        66.25835         2.10089
H         47.76115        66.90754         2.78134
O         45.22130        52.78477        -2.54323
H         44.40209        53.21754        -2.86901
O         56.13576        56.31912         1.52179
H         57.03573        56.18936         1.89226
O         55.87511        63.76478        -1.87926
H         56.70820        63.88311        -2.40688
O         28.64289        63.19457         2.05434
H         27.77589        63.63361         2.19134
H         23.02737        75.10914        -1.54700
H         25.42492        75.17013        -1.01585
H         27.77194        75.21377        -0.33280
H         30.38450        75.19188        -0.41458
H         32.89857        74.34796        -1.60824
H         35.28476        75.17779        -0.10832
H         37.72566        75.21891         0.33473
H         40.27475        74.97618        -0.20448
H         42.70746        75.20953         0.42059
H         45.12146        75.07207        -0.16825
H         47.69666        74.95707        -0.55605
H         50.11124        75.09931        -0.36285
H         52.57506        75.24787         0.01576
H         55.16182        75.32582         0.41122
H         57.63340        75.30084         0.42968
H         60.04493        74.74568         1.55404
H         62.52756        75.21273         0.93732
H         64.88489        75.06735         1.50651
H         67.25102        74.95539         2.14418
H         22.06171        69.23698        -1.03468
H         20.85262        71.37493        -1.39525
H         20.89309        73.84341        -1.68961
H         24.50044        64.99530        -0.58977
H         23.28089        67.11209        -0.75263
H         27.05641        60.84301        -0.90281
H         25.77119        62.89445        -0.72001
H         29.36627        56.46784         0.44055
H         28.15481        58.65825         0.01619
H         31.86476        52.16540         0.49869
H         30.60128        54.29564         0.41166
H         34.39297        47.94201         0.71320
H         33.12838        50.04828         0.58575
H         37.51572        44.27162         2.43970
H         35.67282        45.85363         1.01994
H         39.44130        39.55983         1.66815
H         38.20985        41.68309         1.57566
H         41.76394        35.25231         1.51459
H         40.59402        37.40779         1.50477
H         45.16155        31.85538         1.47478
H         42.99933        33.04682         1.45467
H         47.29378        33.01804         1.02476
H         48.49907        35.08487        -0.22759
H         49.79521        37.18072        -0.15415
H         51.07125        39.35881        -0.35874
H         52.36526        41.49503        -0.04564
H         53.60491        43.70510        -0.03244
H         54.82835        45.77922        -0.20105
H         56.00359        47.94287        -0.29902
H         57.24116        50.04258        -0.03882
H         58.47783        52.20309         0.05414
H         59.70627        54.40411         0.23922
H         60.93754        56.55981         0.08009
H         62.15854        58.68232         0.19097
H         63.42497        60.83644         0.00307
H         64.65337        62.99139         0.09449
H         65.82928        65.12113         0.50436
H         67.12408        67.22519         0.55658
H         68.31867        69.26349         1.05818
H         69.54484        71.33350         1.63731
H         69.41695        73.72802         2.25952
