         600
 CSIRO Nanostructure Databank - Neutral Graphene Oxide Data Set
C         22.98161        27.37089         0.12793
C         22.97470        28.73866         0.02021
C         22.99475        31.65424         0.12337
C         22.99807        33.03109         0.21935
C         23.01140        35.95974         0.34540
C         23.01239        37.34277         0.38988
C         22.98368        40.26649         0.25495
C         22.98276        41.65510         0.35916
C         22.98645        44.56607         0.64647
C         22.99408        45.94190         0.76243
C         25.41883        24.54491         0.15684
C         24.22831        25.23540         0.21864
C         25.42310        27.34343        -0.17836
C         24.20463        26.64381         0.05902
C         25.40586        28.77843        -0.28948
C         24.18491        29.47806        -0.15828
C         25.38178        31.65081        -0.38977
C         24.17701        30.92700        -0.16015
C         25.34960        33.07429        -0.38266
C         24.17563        33.77924        -0.03045
C         25.38539        35.96786        -0.19687
C         24.18249        35.23395         0.03800
C         25.37371        37.38973        -0.17071
C         24.18376        38.08501         0.09945
C         25.41322        40.26366         0.04122
C         24.17716        39.54690         0.11310
C         25.41729        41.68477         0.20815
C         24.18323        42.38812         0.36067
C         25.42840        44.52966         0.47668
C         24.19079        43.83185         0.49736
C         25.44073        45.95274         0.59625
C         24.21366        46.66006         0.73598
C         25.41458        48.77327         0.81231
C         24.23138        48.08307         0.84354
C         27.94117        23.07769        -0.08981
C         27.91124        24.48353        -0.14136
C         26.64468        25.21835        -0.10374
C         27.89443        27.31639        -0.72074
C         26.63808        26.61209        -0.26995
C         27.88260        28.80266        -0.45574
C         26.64797        29.50180        -0.42559
C         27.86727        31.62164        -0.55685
C         26.63530        30.92916        -0.49718
C         27.88764        33.06452        -0.81903
C         26.54890        33.84103        -0.74985
C         27.84847        35.97359        -0.54428
C         26.60482        35.27993        -0.50352
C         27.87986        37.39098        -0.45632
C         26.58929        38.14429        -0.65586
C         27.86479        40.25795        -0.13740
C         26.63798        39.57482        -0.18401
C         27.88274        41.68237         0.05616
C         26.65764        42.39334         0.19608
C         27.89779        44.52595         0.32201
C         26.66766        43.81853         0.33293
C         27.90798        45.95781         0.44014
C         26.67711        46.67162         0.57057
C         27.90665        48.80445         0.63854
C         26.66782        48.09521         0.67800
C         27.95584        50.25628         0.76869
C         30.37511        23.05679         0.04953
C         29.13911        22.38065        -0.00505
C         30.37601        24.47977        -0.03732
C         29.14452        25.19311        -0.15606
C         30.35261        27.33191        -0.18271
C         29.16262        26.62397        -0.28268
C         30.35981        28.79004        -0.27458
C         29.10311        29.50046        -0.39359
C         30.33029        31.65852        -0.32850
C         29.10076        30.93286        -0.40642
C         30.31947        33.09465        -0.36149
C         29.11578        33.82060        -0.57186
C         30.32220        35.95467        -0.42097
C         29.09354        35.23571        -0.53351
C         30.34021        37.38392        -0.36773
C         29.10245        38.10083        -0.37295
C         30.33750        40.24046        -0.17490
C         29.11215        39.53883        -0.25479
C         30.35289        41.67267        -0.05055
C         29.12169        42.39085         0.06191
C         30.37139        44.52403         0.16723
C         29.13223        43.81430         0.18785
C         30.39123        45.95500         0.27801
C         29.13783        46.67056         0.41960
C         30.38135        48.84297         0.51682
C         29.11018        48.08669         0.50422
C         30.31851        50.28465         0.11807
C         29.07659        50.97456         0.53604
C         32.87055        20.26728         0.47041
C         31.67104        20.93923         0.34080
C         32.85689        23.06276         0.16267
C         31.63070        22.34539         0.18366
C         32.85047        24.49435         0.05357
C         31.61464        25.19736        -0.02059
C         32.83136        27.32699        -0.00569
C         31.60890        26.62502        -0.04550
C         32.82428        28.80764         0.25313
C         31.54948        29.49762        -0.17337
C         32.79546        31.61714        -0.08855
C         31.56438        30.93533        -0.20769
C         32.77026        33.07609         0.08333
C         31.53579        33.82386        -0.24310
C         32.81124        35.95535        -0.46962
C         31.53893        35.21701        -0.34437
C         32.82614        37.41196        -0.31937
C         31.58086        38.10540        -0.28758
C         32.82414        40.23078        -0.15382
C         31.58307        39.52549        -0.20806
C         32.82808        41.65832        -0.08853
C         31.58811        42.37565        -0.03162
C         32.83927        44.51048         0.01130
C         31.59808        43.80583         0.05126
C         32.85027        45.93995         0.04865
C         31.62340        46.63865         0.21596
C         32.90353        48.83072        -0.03050
C         31.67459        48.10532         0.37189
C         32.89490        50.23816        -0.18815
C         31.60419        50.99231        -0.19759
C         32.83619        53.11923        -0.25083
C         31.68141        52.46454        -0.06499
C         35.41593        18.85593         0.76986
C         35.36717        20.25134         0.53466
C         34.10811        20.95425         0.42794
C         35.33881        23.08878         0.18065
C         34.10041        22.36637         0.26057
C         35.32910        24.50973         0.05323
C         34.07992        25.20935         0.02181
C         35.30729        27.35752        -0.12524
C         34.06557        26.63523        -0.02043
C         35.26837        28.78464        -0.30864
C         34.08294        29.50778        -0.19640
C         35.27762        31.67556        -0.24577
C         34.05876        30.94332        -0.19782
C         35.34244        33.06622         0.03505
C         34.06832        33.80103         0.19584
C         35.31722        35.97925         0.07196
C         34.11287        35.22471        -0.23768
C         35.30913        37.36377        -0.04631
C         34.05673        38.08834        -0.21179
C         35.30141        40.21994        -0.05573
C         34.06323        39.51684        -0.14219
C         35.30195        41.64193        -0.04981
C         34.06488        42.36186        -0.06457
C         35.30566        44.50367        -0.06591
C         34.07058        43.79258        -0.04429
C         35.30959        45.93490        -0.10336
C         34.08950        46.65474        -0.05272
C         35.34134        48.80227        -0.31001
C         34.10521        48.09919        -0.13923
C         35.33796        50.22941        -0.43374
C         34.09746        50.92861        -0.42918
C         35.37720        53.14248        -0.75250
C         34.07086        52.39988        -0.63930
C         35.50458        54.56030        -0.31795
C         37.84921        18.85418         0.64269
C         36.61864        18.18139         0.83464
C         37.83276        20.25912         0.41832
C         36.58976        20.96402         0.39123
C         37.80480        23.10508         0.08685
C         36.57676        22.38823         0.21616
C         37.79528        24.52407        -0.03665
C         36.55598        25.23166        -0.03760
C         37.79083        27.37501        -0.28649
C         36.54022        26.66225        -0.15769
C         37.80396        28.77659        -0.47739
C         36.52271        29.46719        -0.65872
C         37.80793        31.69268        -0.37078
C         36.52917        31.00938        -0.60369
C         37.80255        33.08297        -0.04394
C         36.54422        33.76820         0.11659
C         37.79168        35.96359         0.34197
C         36.51006        35.21560         0.58183
C         37.78716        37.34712         0.20541
C         36.54725        38.08895         0.07942
C         37.78626        40.21817         0.07764
C         36.54651        39.49779         0.02705
C         37.77880        41.63805         0.02669
C         36.54150        42.35516        -0.02400
C         37.77504        44.49414        -0.09235
C         36.53789        43.78007        -0.05697
C         37.76258        45.91563        -0.18940
C         36.56055        46.63906        -0.19995
C         37.80300        48.79747        -0.33551
C         36.57139        48.08283        -0.31054
C         37.81382        50.22609        -0.41579
C         36.58786        50.94008        -0.52203
C         37.85247        53.03847        -0.77382
C         36.63729        52.35741        -0.67873
C         37.81999        54.50742        -1.14932
C         36.68056        55.19129        -0.42755
C         40.37917        16.06248         0.83049
C         39.17720        16.74935         0.90686
C         40.30525        18.84138         0.33056
C         39.10636        18.13693         0.63917
C         40.29031        20.25836         0.12952
C         39.05950        20.97336         0.20686
C         40.27569        23.09751        -0.10060
C         39.04748        22.39027         0.06154
C         40.26785        24.52792        -0.19055
C         39.03530        25.23885        -0.16107
C         40.25776        27.37117        -0.45829
C         39.02869        26.66122        -0.27721
C         40.25865        28.81280        -0.55100
C         39.02101        29.51398        -0.53777
C         40.25541        31.67125        -0.36522
C         39.01697        30.96460        -0.46335
C         40.24897        33.08126        -0.10851
C         39.03261        33.77082         0.09707
C         40.30621        35.94918         0.28678
C         39.05318        35.19196         0.63097
C         40.27502        37.37406         0.27152
C         39.03462        38.08623         0.21238
C         40.26694        40.23237         0.19834
C         39.02820        39.50219         0.16076
C         40.25966        41.64708         0.15338
C         39.01782        42.36008         0.05028
C         40.25560        44.50171         0.08605
C         39.00915        43.77231        -0.02817
C         40.24833        45.88482         0.07516
C         39.06023        46.62069        -0.46855
C         40.23120        48.81099        -0.05204
C         39.04425        48.10442        -0.20991
C         40.27680        50.23077        -0.19304
C         39.05697        50.93298        -0.41445
C         40.34029        53.03353        -0.66715
C         39.08569        52.34421        -0.61674
C         40.33754        54.46555        -0.93283
C         39.16293        55.19655        -1.03099
C         40.35332        57.35435        -1.10818
C         39.19585        56.63610        -1.11109
C         42.79512        15.99340         0.28618
C         41.56403        16.72402         0.45160
C         42.72025        18.81731        -0.19114
C         41.53386        18.12687         0.20601
C         42.74009        20.22645        -0.26495
C         41.51209        20.95653        -0.10670
C         42.74529        23.09187        -0.28701
C         41.50515        22.37861        -0.18442
C         42.75009        24.51330        -0.33375
C         41.49676        25.24532        -0.34461
C         42.74057        27.34009        -0.94248
C         41.47113        26.64835        -0.50266
C         42.73857        28.84656        -0.72061
C         41.49420        29.53893        -0.60793
C         42.72449        31.69390        -0.51731
C         41.49421        30.96667        -0.49723
C         42.69464        33.10886        -0.34485
C         41.49898        33.79645        -0.07810
C         42.75779        35.93094         0.16301
C         41.51313        35.23507         0.10963
C         42.74337        37.36155         0.50409
C         41.49370        38.11302         0.31715
C         42.76349        40.24812         0.26982
C         41.51147        39.51826         0.28761
C         42.74852        41.66509         0.22268
C         41.50066        42.37443         0.20924
C         42.74040        44.50757         0.27773
C         41.50088        43.78182         0.22344
C         42.75229        45.91285         0.37100
C         41.46835        46.61916         0.43221
C         42.76114        48.81826         0.27955
C         41.46973        48.11548         0.35355
C         42.76603        50.21372         0.10447
C         41.52295        50.92807        -0.16389
C         42.85719        53.00339        -0.47499
C         41.54123        52.31598        -0.44281
C         42.90024        54.45914        -0.79869
C         41.62058        55.15945        -1.16134
C         42.91502        57.38162        -0.98873
C         41.63970        56.67033        -1.26392
C         43.90725        16.59572        -0.20716
C         45.27994        18.81809        -0.58435
C         43.90809        18.02599        -0.52095
C         45.22969        20.25946        -0.32775
C         43.99189        20.94703        -0.33971
C         45.21642        23.08841        -0.16730
C         43.98132        22.37661        -0.27680
C         45.21200        24.52924        -0.18435
C         43.98929        25.20601        -0.31261
C         45.24764        27.34238        -0.68113
C         43.95431        26.71281        -0.22474
C         45.23965        28.83579        -0.83108
C         43.94442        29.55120        -0.71374
C         45.22147        31.66297        -0.66569
C         43.97739        30.98529        -0.64138
C         45.23395        33.13315        -0.73855
C         43.93198        33.88488        -0.53495
C         45.23812        35.95450         0.01793
C         43.98505        35.28394        -0.06942
C         45.29530        37.38306         0.16353
C         44.05419        38.12063         0.45716
C         45.22485        40.27288         0.04951
C         44.01863        39.57481         0.23890
C         45.22083        41.69840         0.03871
C         43.98030        42.38646         0.18047
C         45.21116        44.52348         0.28664
C         43.98289        43.80645         0.23854
C         45.20616        45.94012         0.41424
C         43.96490        46.64230         0.44136
C         45.19835        48.77830         0.64562
C         43.96412        48.08196         0.46055
C         45.16663        50.20584         0.65157
C         44.00322        50.91413         0.28953
C         45.20856        53.07566         0.34754
C         44.03736        52.35301         0.15248
C         45.19805        54.56457         0.34364
C         43.99743        55.29845        -0.20303
C         44.01691        56.74398        -0.55983
C         47.64745        18.78652         0.05400
C         46.52245        18.10618        -0.29386
C         47.69271        20.22303         0.07151
C         46.44860        20.96098        -0.07039
C         47.68143        23.09937         0.41938
C         46.42418        22.37264         0.00421
C         47.70483        24.57065         0.08067
C         46.47657        25.25662        -0.11797
C         47.70756        27.38855        -0.30600
C         46.50250        26.65483        -0.33548
C         47.70961        28.82965        -0.42244
C         46.50257        29.54966        -0.59175
C         47.72392        31.66695        -0.52289
C         46.48541        30.96870        -0.58281
C         47.75257        33.14227        -0.83360
C         46.48250        33.86156        -0.46280
C         47.74490        35.89714         0.08812
C         46.46309        35.20479        -0.16128
C         47.76097        37.41739         0.12569
C         46.47466        38.11513         0.02606
C         47.67742        40.24424        -0.28293
C         46.49435        39.55943        -0.06088
C         47.68074        41.73213        -0.53252
C         46.43802        42.42961        -0.04710
C         47.70204        44.54391         0.23284
C         46.45255        43.81620         0.15342
C         47.69623        45.92353         0.48090
C         46.44251        46.65426         0.55451
C         47.68810        48.69005         1.29580
C         46.42326        48.04471         0.76092
C         47.68132        50.21790         1.23270
C         46.38609        50.96566         0.98198
C         47.64898        53.09216         0.77803
C         46.43959        52.40456         0.66674
C         47.63873        54.53985         0.66415
C         46.49773        55.24187         0.47955
C         50.19278        20.26347         0.09341
C         48.93342        20.90348         0.08697
C         50.22219        23.12632        -0.05365
C         48.91611        22.37284        -0.06586
C         50.20136        24.57708         0.21631
C         48.92398        25.27304         0.10062
C         50.14117        27.42627         0.06324
C         48.93172        26.70031        -0.04920
C         50.16510        28.82791        -0.08496
C         48.94210        29.54021        -0.29888
C         50.20121        31.67808        -0.30984
C         48.94522        30.96830        -0.38665
C         50.22465        33.10693        -0.32841
C         49.01310        33.83372        -0.39951
C         50.22760        35.95308        -0.13664
C         49.01448        35.21665        -0.19786
C         50.21116        37.39916        -0.19101
C         49.00758        38.10083        -0.19262
C         50.21698        40.27995        -0.30561
C         48.95310        39.52842        -0.66136
C         50.19010        41.69460        -0.11384
C         48.95979        42.42314        -0.10148
C         50.19197        44.51951         0.28720
C         48.95095        43.80719         0.14235
C         50.18111        45.95104         0.41847
C         48.94734        46.65215         0.55826
C         50.15982        48.78285         0.73689
C         48.95298        48.04985         0.77107
C         50.15506        50.23387         0.83484
C         48.93481        50.95047         0.97566
C         50.14457        53.05261         0.80996
C         48.90529        52.36573         0.89492
C         51.39636        20.96491         0.13709
C         52.67176        23.09886         0.39603
C         51.46669        22.37325         0.16089
C         52.65990        24.53854         0.46365
C         51.38694        25.24723         0.41041
C         52.65154        27.34672         0.01786
C         51.36969        26.74772         0.61922
C         52.65537        28.85773         0.03420
C         51.41832        29.55073        -0.02869
C         52.67300        31.67969        -0.14381
C         51.42541        30.97103        -0.15381
C         52.69017        33.10600        -0.18993
C         51.45747        33.81935        -0.21431
C         52.69324        35.96169        -0.25115
C         51.45815        35.24493        -0.20149
C         52.66072        37.38958        -0.35209
C         51.46061        38.11242        -0.34118
C         52.65805        40.30085        -0.14192
C         51.43478        39.57381        -0.30531
C         52.64725        41.67018         0.11016
C         51.42069        42.39159         0.12100
C         52.66944        44.54255         0.31374
C         51.41830        43.81633         0.26913
C         52.65527        45.96898         0.34791
C         51.40735        46.67393         0.44109
C         52.63694        48.82211         0.52958
C         51.39662        48.09443         0.55222
C         52.63262        50.23980         0.62635
C         51.37552        50.95088         0.74023
C         51.33829        52.36728         0.76198
C         55.10003        23.11729         0.65610
C         53.91863        22.42613         0.54582
C         55.12590        24.54322         0.63627
C         53.88022        25.23440         0.57726
C         55.16199        27.36738         0.17253
C         53.89610        26.74401         0.68822
C         55.12510        28.75544        -0.40724
C         53.87176        29.53577        -0.08745
C         55.15036        31.66893        -0.19975
C         53.90319        30.96027        -0.13909
C         55.16251        33.08866        -0.21387
C         53.92768        33.81880        -0.20938
C         55.18183        35.95432        -0.27300
C         53.92848        35.24544        -0.25477
C         55.20209        37.36755        -0.33882
C         53.93887        38.09574        -0.53465
C         55.21372        40.27120        -0.06980
C         53.94128        39.60754        -0.38031
C         55.20360        41.68277         0.13511
C         53.91476        42.36770         0.53947
C         55.12459        44.55991         0.21742
C         53.90377        43.85329         0.28993
C         55.11666        45.98736         0.22462
C         53.88165        46.68870         0.32813
C         55.10366        48.84342         0.38185
C         53.87699        48.12342         0.40783
C         55.06552        50.25233         0.48720
C         53.86670        50.92920         0.60606
C         57.62204        24.60920         0.72853
C         56.36733        25.26630         0.60420
C         57.61577        27.38151         0.10990
C         56.35916        26.68169         0.29220
C         57.62508        28.80361        -0.07085
C         56.40130        29.52604        -0.18038
C         57.64124        31.65068        -0.19535
C         56.39505        30.93284        -0.19595
C         57.64435        33.08211        -0.22871
C         56.40743        33.80377        -0.23181
C         57.65384        35.94583        -0.26321
C         56.41431        35.22686        -0.24815
C         57.65781        37.37704        -0.24994
C         56.41815        38.09373        -0.28320
C         57.67291        40.21183        -0.04937
C         56.42243        39.53093        -0.16420
C         57.70251        41.68759         0.27817
C         56.38945        42.40999         0.10468
C         57.57393        44.57286        -0.08577
C         56.38440        43.85108         0.10335
C         57.57860        46.00063        -0.00949
C         56.35165        46.71088         0.16313
C         57.59639        48.81322         0.16800
C         56.36038        48.13318         0.24068
C         58.81125        25.28104         0.55411
C         60.06444        27.38500         0.15309
C         58.83147        26.67923         0.25480
C         60.07940        28.75108        -0.00788
C         58.87025        29.50021        -0.09048
C         60.08797        31.67289        -0.23467
C         58.87143        30.93609        -0.18304
C         60.09114        33.04714        -0.27208
C         58.87993        33.79113        -0.25929
C         60.09920        35.96981        -0.28546
C         58.88617        35.23123        -0.27244
C         60.10339        37.34733        -0.25386
C         58.89366        38.08909        -0.21555
C         60.13537        40.28651        -0.12180
C         58.88654        39.52592        -0.12166
C         60.15715        41.62778        -0.26591
C         58.88179        42.38129        -0.37277
C         60.06871        44.67564        -0.52915
C         58.82972        43.88099        -0.47197
C         60.04530        46.01343        -0.33607
C         58.80258        46.72148        -0.10809
C         58.78994        48.12278        -0.00302
O         43.28208        53.50167        -1.83007
O         44.49596        33.69562        -1.89167
O         36.45947        30.27546        -1.87493
O         58.63538        42.98911        -1.66497
O         43.45954        37.71034         1.74397
O         30.69725        50.53750        -1.28180
O         53.95969        38.97235        -1.71743
O         46.90455        50.74324         2.36275
O         44.56321        18.37724        -1.77329
O         49.49316        22.81877        -1.31799
O         31.19528        48.57999         1.71052
O         41.29672        47.44147         1.66848
O         45.28444        27.92765        -2.02191
O         33.61803        35.44651        -1.60543
O         41.70211        55.82192        -2.46777
O         34.58026        52.86325        -1.94813
O         33.32569        33.52832         1.41871
O         44.13725        55.10211         1.24590
O         27.15611        33.44667        -2.02793
O         47.81340        36.60254         1.36518
O         43.85190        27.04897         1.19076
H         43.04664        26.61499         1.54474
O         47.69612        48.33830         2.71795
H         47.16455        49.03296         3.17443
O         39.23170        46.54074        -1.94911
H         39.09764        45.60280        -2.20630
O         48.93960        39.46911        -2.15578
H         49.81785        39.13429        -2.44146
O         47.63901        41.88665        -2.00208
H         48.15655        41.13463        -2.38529
O         53.90815        42.23267         2.01823
H         54.56956        42.86554         2.37164
O         42.81600        27.08355        -2.36348
H         43.67237        27.46150        -2.68514
O         47.78836        33.22336        -2.31224
H         46.90646        32.94559        -2.64414
O         51.26970        27.00993         2.04348
H         52.17303        26.93555         2.43810
O         53.88542        27.08264         2.12642
H         54.67229        26.65781         2.53010
O         37.48436        54.57547        -2.57117
H         38.20537        54.13817        -3.07115
O         55.03666        28.53619        -1.88739
H         55.07371        29.41993        -2.31392
O         36.35595        35.12380         2.06574
H         36.19027        36.03290         2.39725
O         52.68242        26.94246        -1.37079
H         53.47025        27.36965        -1.78996
O         57.98246        41.76969         1.72464
H         57.30522        41.23277         2.18835
O         39.09867        35.03664         2.10248
H         38.17437        34.82262         2.38928
O         26.42114        38.24033        -2.12642
H         26.42789        37.32376        -2.47772
O         27.89795        27.19374        -2.19458
H         27.09303        27.64592        -2.52624
O         32.83769        28.93620         1.73020
H         32.02949        28.49474         2.06842
O         47.74518        23.00433         1.88391
H         46.97020        23.48140         2.24884
H         22.04136        26.82119         0.27826
H         22.01399        29.26579         0.08095
H         22.05214        31.12485         0.31192
H         22.06146        33.53997         0.48052
H         22.07090        35.43278         0.55200
H         22.07706        37.85952         0.64110
H         22.01888        39.74310         0.28074
H         22.01683        42.16686         0.45724
H         22.02148        44.04322         0.66942
H         22.04881        46.49216         0.87410
H         25.40849        23.45758         0.30770
H         23.28596        24.70097         0.40607
H         25.39074        49.86808         0.88771
H         23.27772        48.62064         0.94649
H         27.00655        22.50225        -0.11756
H         27.03876        50.79206         1.04842
H         29.10320        21.28398         0.02876
H         29.05043        52.07159         0.59793
H         32.84716        19.17678         0.59330
H         30.73964        20.35887         0.37006
H         32.85840        54.21720        -0.20478
H         30.76011        53.02394         0.15014
H         34.48862        18.28525         0.90835
H         34.64480        55.06465         0.14763
H         36.60315        17.09913         1.01750
H         36.79467        56.22117        -0.05923
H         40.40922        14.98336         1.03867
H         38.27150        16.19224         1.17981
H         40.33469        58.45076        -1.02419
H         38.23864        57.17592        -1.09666
H         42.79809        14.91539         0.50405
H         42.94354        58.46663        -1.17340
H         44.80629        16.00291        -0.42287
H         44.93497        57.31640        -0.36262
H         48.56772        18.21934         0.24810
H         46.55451        17.01399        -0.40215
H         48.57923        55.09544         0.77083
H         46.52595        56.33985         0.45818
H         50.24516        19.16638         0.11956
H         50.17323        54.14868         0.77878
H         52.32082        20.37555         0.20712
H         52.26818        52.94678         0.70376
H         56.03731        22.55054         0.72926
H         53.95010        21.32871         0.53882
H         55.99584        50.83468         0.47946
H         53.89415        52.02292         0.69062
H         57.65570        23.53878         0.97220
H         57.63143        49.90841         0.23356
H         59.76654        24.74820         0.66468
H         61.00834        26.82761         0.23857
H         61.04852        29.26488        -0.05337
H         61.05093        31.14637        -0.24346
H         61.05740        33.56625        -0.30893
H         61.06397        35.44708        -0.30850
H         61.07045        37.86621        -0.25239
H         61.08935        39.74547        -0.06340
H         61.11549        42.15872        -0.35657
H         61.01328        44.16433        -0.76064
H         60.97447        46.59996        -0.38717
H         59.73748        48.67633        -0.07058
