         667
 CSIRO Nanostructure Databank - Neutral Graphene Oxide Data Set
C          5.89215        31.74991         0.17519
C          5.88816        33.12260         0.20509
C          8.36940        27.44543         0.26160
C          8.36219        28.83955         0.37386
C          7.13973        29.59222         0.19531
C          8.30709        31.67132         0.78549
C          7.08360        30.95941         0.36595
C          8.30275        33.18675         0.81673
C          7.07659        33.90897         0.42328
C          8.36267        36.01327         0.48548
C          7.13227        35.28373         0.30213
C          8.40198        37.41718         0.50646
C         10.84173        23.13977         0.14226
C         10.80611        24.56047         0.25700
C          9.59664        25.28497         0.21689
C         10.81298        27.39097         0.57283
C          9.57474        26.69173         0.34841
C         10.80631        28.81276         0.73356
C          9.60402        29.53640         0.61292
C         10.77782        31.71646         0.69372
C          9.60353        30.98108         0.67488
C         10.79272        33.16257         0.68829
C          9.59059        33.88704         0.70218
C         10.83578        36.01038         0.70800
C          9.59970        35.30198         0.61988
C         10.84088        37.44063         0.72093
C          9.60708        38.12920         0.64249
C         10.81701        40.34331         0.43125
C          9.54212        39.63697         0.79881
C         10.81301        41.65084         0.06688
C         13.26289        18.84315        -0.09441
C         13.24546        20.24707         0.08647
C         12.06565        20.99742         0.03139
C         13.29575        23.14766         0.32271
C         12.04207        22.42030         0.19407
C         13.29151        24.55969         0.39300
C         12.04654        25.27856         0.41481
C         13.30941        27.39285         0.94587
C         12.03234        26.67376         0.58863
C         13.26643        28.87024         0.64636
C         12.07586        29.52442         0.82032
C         13.34210        31.73706         0.92355
C         12.04757        30.99941         0.92350
C         13.26164        33.14769         0.18649
C         12.02920        33.88395         0.64785
C         13.36516        35.97996         1.01587
C         12.05777        35.26885         0.74006
C         13.31367        37.45175         0.65787
C         12.12210        38.13991         0.70667
C         13.24414        40.22005        -0.11370
C         12.12464        39.66343         0.78348
C         13.28545        41.73109        -0.15245
C         12.04137        42.42750        -0.10085
C         13.24523        44.55081        -0.27920
C         12.03008        43.82005        -0.17612
C         13.27152        45.97304        -0.25469
C         15.82967        14.53623        -0.28640
C         15.78311        15.96125        -0.26147
C         14.54289        16.69368        -0.25629
C         15.71143        18.88080        -0.29305
C         14.46695        18.09214        -0.17699
C         15.76736        20.28731         0.07618
C         14.50690        20.94763         0.55495
C         15.75440        23.12346         0.27754
C         14.52575        22.43798         0.32905
C         15.76962        24.55430         0.27883
C         14.53846        25.28119         0.39544
C         15.77782        27.40877         0.42058
C         14.55528        26.68485         0.49385
C         15.79784        28.82770         0.46189
C         14.52569        29.61300         0.22926
C         15.86012        31.76853         0.84204
C         14.59064        31.00051         0.79273
C         15.76553        33.07093        -0.06595
C         14.56766        33.90105         0.31564
C         15.94344        35.96419         0.68898
C         14.61152        35.23525         0.54242
C         15.88307        37.42273         0.27582
C         14.62372        38.16351         0.56671
C         15.76362        40.30774        -0.27082
C         14.57689        39.62919         0.27362
C         15.74692        41.67333        -0.50660
C         14.48780        42.41135        -0.35618
C         15.69531        44.57456        -0.47577
C         14.48318        43.84451        -0.39855
C         15.70278        45.97050        -0.32530
C         14.46596        46.68133        -0.24101
C         15.71632        48.92088        -0.15666
C         14.38470        48.19369        -0.12421
C         15.76855        50.28533        -0.21724
C         18.38436        10.42253        -1.04100
C         18.34766        11.73292        -0.62233
C         17.10262        12.43910        -0.47754
C         18.35222        14.58996        -0.47388
C         17.05025        13.82385        -0.33318
C         18.26945        15.98899         0.07101
C         17.01453        16.65426        -0.11249
C         18.20951        18.82586         0.27946
C         17.05713        18.10220        -0.18356
C         18.22875        20.21370         0.15066
C         16.97782        20.95472         0.06938
C         18.21818        23.08423         0.08740
C         17.00899        22.40700         0.18228
C         18.24183        24.52164         0.14283
C         17.00298        25.25136         0.24883
C         18.24225        27.38280         0.26089
C         17.01497        26.67814         0.30493
C         18.25844        28.80340         0.31050
C         17.02869        29.53044         0.43148
C         18.26245        31.63010         0.13252
C         17.07402        30.95663         0.44197
C         18.25060        33.07148        -0.02868
C         17.08671        33.80275         0.03113
C         18.29845        35.93477        -0.20991
C         17.11874        35.24154         0.06307
C         18.29240        37.38802        -0.34943
C         17.00217        38.07158        -0.18348
C         18.19422        40.24742        -0.97157
C         16.92547        39.49442        -0.60604
C         18.20021        41.70205        -0.77873
C         16.98820        42.37734        -0.71349
C         18.14964        44.46782         0.00499
C         17.00020        43.88666        -0.80725
C         18.16908        45.98625        -0.10350
C         16.98482        46.66953        -0.17166
C         18.28352        48.90511        -0.02564
C         16.94358        48.13662         0.07657
C         18.22065        50.31748        -0.37832
C         17.01487        51.03596        -0.29229
C         18.21675        53.21339        -0.26086
C         17.01908        52.46254        -0.28086
C         18.27837        54.61024        -0.10799
C         20.93913         6.19845        -1.80949
C         20.86425         7.55996        -1.34787
C         19.70317         8.28267        -1.46938
C         20.72543        10.20393        -0.23979
C         19.71889         9.77972        -1.30968
C         20.78458        11.70942        -0.12810
C         19.60799        12.42613        -0.30054
C         20.70823        14.49252         0.42720
C         19.58690        13.83850        -0.04636
C         20.57273        15.87668         1.03245
C         19.38734        16.65431         0.52188
C         20.66716        18.78434         0.72724
C         19.33333        18.09491         0.95610
C         20.68221        20.15006         0.40607
C         19.48233        20.88651         0.22336
C         20.77632        23.04485        -0.02394
C         19.47107        22.30150        -0.30014
C         20.74436        24.52445         0.11307
C         19.45638        25.23248         0.13687
C         20.71129        27.32965         0.41641
C         19.48543        26.65159         0.23736
C         20.79799        28.78804         0.07096
C         19.48352        29.51889         0.18223
C         20.82021        31.59757        -0.18311
C         19.48968        30.89648         0.02957
C         20.71294        33.06531         0.26224
C         19.53648        33.72726        -0.43782
C         20.75574        35.87434        -0.52813
C         19.55082        35.22576        -0.34083
C         20.67874        37.25488        -1.15089
C         19.45082        38.04265        -0.72807
C         20.78199        40.24872        -1.10278
C         19.47527        39.47999        -1.07480
C         20.75448        41.70092        -0.74950
C         19.47440        42.40671        -0.61117
C         20.69192        44.49579        -0.05417
C         19.45168        43.75891        -0.33832
C         20.67303        45.96284        -0.43147
C         19.48142        46.68752         0.22945
C         20.74632        48.75746        -0.57370
C         19.48020        48.11575        -0.22923
C         20.76785        50.25473        -0.72673
C         19.46438        51.00296        -0.73918
C         20.76683        53.11241        -0.16180
C         19.47547        52.49771        -0.57412
C         20.78870        54.57814         0.11403
C         19.51292        55.34070        -0.02119
C         20.85518        57.41286         0.45271
C         19.57301        56.71244         0.06652
C         20.86087        58.85933         0.06369
C         23.48011         3.67373        -2.80816
C         22.23633         4.25107        -2.54116
C         23.37173         6.04827        -1.20081
C         22.13826         5.51272        -1.89449
C         23.33427         7.53415        -0.95519
C         22.10557         8.21793        -0.90105
C         23.24749        10.23818        -0.10722
C         22.06658         9.56055        -0.47265
C         23.20716        11.63278         0.31103
C         22.00463        12.36476         0.24101
C         23.13442        14.46662         0.91152
C         21.97459        13.79240         0.54293
C         23.05087        15.82582         1.58103
C         21.87310        16.65500         1.08948
C         23.13269        18.80830         1.12115
C         21.88810        18.04021         0.98155
C         23.17743        20.15462         0.84356
C         22.00108        20.87060         0.21267
C         23.18227        23.07476         0.70638
C         21.87476        22.31522         0.73414
C         23.17072        24.49039         0.74204
C         21.93262        25.22393         0.62302
C         23.10099        27.32725         1.20670
C         21.90259        26.60955         0.70274
C         23.06532        28.82713         1.33320
C         21.92078        29.56196         0.73664
C         23.10594        31.74788         0.95848
C         21.93324        30.90868         0.58846
C         23.18604        33.13600         0.43387
C         22.01079        33.80499         0.06506
C         23.27085        35.84772        -0.34615
C         22.02230        35.16667        -0.33166
C         23.30100        37.26281        -0.82182
C         22.01608        38.01850        -1.09031
C         23.26203        40.18724        -0.75793
C         22.04216        39.49472        -0.94513
C         23.25360        41.69875        -0.97861
C         21.95303        42.34192        -0.53974
C         23.24590        44.53870        -0.25100
C         21.99544        43.75453        -0.13135
C         23.21389        45.94708        -0.08960
C         21.98543        46.67085        -0.17308
C         23.21523        48.79774        -0.03276
C         22.00506        48.05691        -0.22592
C         23.22481        50.25037        -0.17225
C         22.02795        50.97381        -0.43003
C         23.25587        53.09412        -0.36660
C         22.03787        52.38167        -0.38526
C         23.27539        54.55125        -0.33244
C         22.07931        55.28597        -0.06176
C         23.29642        57.38092        -0.30359
C         22.09153        56.67685        -0.02155
C         23.28428        58.80481        -0.38575
C         22.03735        59.52841        -0.25636
C         23.24495        61.61260        -0.70709
C         22.05471        60.94591        -0.45417
C         24.67435         4.33783        -2.50593
C         25.82853         6.31110        -1.61148
C         24.66896         5.58447        -1.82974
C         25.82565         7.58522        -0.94387
C         24.53591         8.20960        -0.63895
C         25.71277        10.22652         0.24276
C         24.48315         9.54971        -0.19387
C         25.66681        11.68147         0.46838
C         24.44780        12.30870         0.61223
C         25.68949        14.43788         1.41696
C         24.39337        13.71471         1.09464
C         25.66878        15.92009         1.30295
C         24.37703        16.60687         1.61737
C         25.73340        18.79211         1.39211
C         24.37283        18.10047         1.54560
C         25.62377        20.24999         1.03233
C         24.41723        20.91441         0.93227
C         25.61640        23.09713         0.87814
C         24.40322        22.37419         0.82131
C         25.61982        24.50517         0.76278
C         24.39087        25.21560         0.78228
C         25.57932        27.36038         0.89543
C         24.40384        26.65339         0.98408
C         25.66660        28.78391         1.27310
C         24.37730        29.55160         1.48846
C         25.67582        31.73345         1.08198
C         24.39240        31.04307         1.32822
C         25.64088        33.10420         0.82814
C         24.42892        33.81648         0.46549
C         25.70260        35.94672         0.26568
C         24.45528        35.20109         0.10487
C         25.56056        37.46221         0.37191
C         24.62708        38.01533        -0.70942
C         25.66599        40.28695        -0.04987
C         24.47166        39.52424        -0.57034
C         25.70127        41.75959        -0.35456
C         24.49309        42.43344        -0.49667
C         25.69732        44.57876        -0.11423
C         24.47345        43.85646        -0.33354
C         25.66645        45.95239         0.16438
C         24.43551        46.66925         0.12287
C         25.60325        48.83375         0.68601
C         24.39754        48.09104         0.25563
C         25.65201        50.31860         0.44809
C         24.43522        50.97503        -0.06661
C         25.74563        53.05988        -0.35438
C         24.47630        52.36676        -0.30104
C         25.72174        54.44989        -0.95206
C         24.48585        55.23749        -0.54529
C         25.71462        57.38615        -0.83311
C         24.50303        56.65425        -0.56178
C         25.69724        58.76156        -0.86284
C         24.48546        59.50509        -0.67237
C         24.45492        60.91273        -0.81088
C         27.00849         8.27568        -0.75620
C         28.25651        10.39664        -0.05939
C         27.04993         9.54787        -0.03417
C         28.21990        11.73589         0.22085
C         26.92154        12.51632         0.29396
C         28.18137        14.56028         0.79087
C         27.03772        13.69553         1.29310
C         27.98423        15.87659         0.44799
C         26.74906        16.58201         0.76909
C         28.04817        18.78575         0.52537
C         26.69222        18.07115         0.42652
C         28.05072        20.21529         0.73754
C         26.88184        20.92996         0.92283
C         28.11428        23.09866         0.58499
C         26.91892        22.40875         1.18987
C         28.03782        24.51165         0.36965
C         26.85432        25.22179         0.54533
C         28.05836        27.44306         0.48430
C         26.76410        26.70796         0.22865
C         28.11374        28.79420         0.81433
C         26.91736        29.53640         1.03792
C         28.15664        31.63992         0.93457
C         26.92992        30.97714         1.07727
C         28.22925        33.10390         0.97408
C         26.88774        33.87362         0.94477
C         28.16184        36.02257         0.77756
C         26.87003        35.31051         0.61158
C         28.17656        37.48953         0.48877
C         26.89644        38.20540         0.27918
C         28.18688        40.34134        -0.02644
C         26.95042        39.56713        -0.42869
C         28.17659        41.70486        -0.03464
C         26.93928        42.44903        -0.20423
C         28.18231        44.58312        -0.08314
C         26.96072        43.87414        -0.14426
C         28.21569        45.97790         0.21548
C         26.92604        46.62604         0.57499
C         28.17839        48.89495         0.85309
C         26.89825        48.09820         0.87504
C         28.13912        50.35671         0.58196
C         26.96133        51.01368         0.32897
C         28.19537        53.15299        -0.07434
C         26.93380        52.41919        -0.05228
C         28.14376        54.58281        -0.36738
C         27.00460        55.21076        -0.73475
C         27.00115        56.65692        -1.16575
C         29.43270        12.49555         0.33105
C         30.71986        14.54595         0.63126
C         29.45643        13.85303         0.62063
C         30.91183        15.82683         1.13339
C         29.03833        16.71094        -0.23348
C         30.53784        18.76430         0.39224
C         29.22817        18.09121         0.33784
C         30.55014        20.14639         0.36490
C         29.36581        20.94559         0.85329
C         30.51871        23.09849         0.11951
C         29.31133        22.40128         0.41783
C         30.55869        24.50140        -0.00899
C         29.26582        25.22186        -0.03984
C         30.56750        27.39092         0.14380
C         29.27189        26.71656         0.08916
C         30.60968        28.72230         0.41496
C         29.47859        29.40401         1.16753
C         30.50858        31.60713         0.15664
C         29.51635        30.98723         1.13668
C         30.55051        33.06695         0.03055
C         29.46785        33.79013         0.50693
C         30.66847        36.03824         0.22318
C         29.46882        35.27087         0.63827
C         30.69285        37.39603         0.06816
C         29.39193        38.12754        -0.15659
C         30.64564        40.29113        -0.50295
C         29.48291        39.61386         0.23124
C         30.72763        41.73596        -0.10650
C         29.45537        42.46503         0.26706
C         30.73199        44.58157        -0.10269
C         29.45053        43.83956        -0.40898
C         30.69962        46.07090        -0.28997
C         29.40053        46.69850         0.19225
C         30.65975        48.88860         0.05867
C         29.45336        48.13771         0.52262
C         30.45616        50.32767        -0.37254
C         29.47880        51.07380         0.58254
C         29.37024        52.52617         0.20987
C         31.96554        16.67743         0.65107
C         33.04241        18.79040         0.20122
C         31.83331        18.04982         0.39332
C         33.06990        20.17370         0.01676
C         31.76787        20.85905        -0.06713
C         33.03739        23.08747        -0.13669
C         31.75759        22.36393        -0.17528
C         33.02454        24.49816        -0.11383
C         31.78413        25.19500        -0.12699
C         33.03451        27.36230         0.30501
C         31.81149        26.69374        -0.35858
C         33.05847        28.84740        -0.05686
C         31.80529        29.45985         0.04461
C         33.33128        31.80020        -0.63128
C         31.48527        30.79838        -0.37792
C         33.17730        33.12098        -0.25302
C         31.83690        33.79759        -0.34009
C         33.15450        35.97929         0.35867
C         31.89244        35.27893        -0.11594
C         33.19436        37.44531        -0.00084
C         31.93961        38.14643        -0.15275
C         33.17841        40.28511        -0.47050
C         31.92807        39.52162        -0.32910
C         33.17661        41.73471        -0.21213
C         31.92631        42.42848        -0.08510
C         33.20172        44.58674         0.06078
C         31.91788        43.89788         0.00913
C         33.23382        46.10775        -0.03473
C         31.90713        46.76774         0.38063
C         31.84140        48.24180         0.00982
C         34.25612        20.94104        -0.10707
C         35.49614        23.09905        -0.17828
C         34.25807        22.35016        -0.16674
C         35.52760        24.46775        -0.13414
C         34.28897        25.23551        -0.09829
C         35.59319        27.33416         0.28917
C         34.30527        26.61043         0.00679
C         35.55686        28.83217         0.03091
C         34.33099        29.54309        -0.15234
C         35.59972        31.67104         0.17668
C         34.42203        30.97398        -0.24271
C         35.57422        33.07792         0.29144
C         34.37209        33.80647         0.10879
C         35.66126        35.99521         0.37098
C         34.42572        35.28196        -0.08816
C         35.65592        37.40241         0.30830
C         34.41962        38.09464         0.00098
C         35.70147        40.28427         0.11270
C         34.50089        39.52971        -0.30635
C         35.62235        41.70209         0.11527
C         34.40470        42.41572        -0.03505
C         34.36743        43.86805         0.06397
C         36.86323        25.18465        -0.00516
C         38.05856        27.42119        -0.16715
C         36.77907        26.66376        -0.42252
C         38.05413        28.77918         0.08844
C         36.78832        29.51051         0.12776
C         38.05053        31.60563         0.50009
C         36.83049        30.93338         0.30497
C         38.07069        33.03240         0.85228
C         36.76278        33.80946         0.76112
C         38.07482        35.96740         0.77799
C         36.83464        35.27893         0.62362
C         38.06778        37.38034         0.73155
C         36.87710        38.12374         0.50870
C         36.85067        39.56037         0.47027
C         39.28381        29.52379         0.20394
C         40.52413        31.67484         0.47880
C         39.29630        30.90132         0.39084
C         40.53751        33.03316         0.62753
C         39.32473        33.81000         0.76772
C         39.30053        35.19035         0.82832
O         29.09882        48.48324         1.92562
O         34.53266        35.06516        -1.48542
O         23.54071        31.67067         2.35565
O         28.96224        35.71957         1.95679
O         29.59505        16.36359        -1.26366
O         24.89865        13.88104         2.50245
O         16.49526        18.57931        -1.46574
O         19.42718        51.91046        -1.90956
O         20.72737        53.61441         1.22987
O         31.77610        34.73988        -1.47048
O         37.27035        33.33014         2.05051
O         25.37771        49.76690         1.79472
O         29.72210        28.96941         2.48858
O         24.33760        17.42738         2.85915
O         20.11605        39.83732        -2.35380
O         20.84960        49.39679        -1.91943
O         26.84958        47.13062         1.96076
O         24.96019        37.69938         1.65628
O         13.03815        32.81422        -1.14045
O          8.15215        32.40429         2.05537
O         21.16399        23.82352        -1.18239
O         17.29450        39.75423        -2.01332
O         29.10155        26.04232        -1.26860
O         25.13167        29.08655         2.62736
O         21.34718        44.07176         1.17493
O         12.64373        31.61004         2.18568
O         33.99824        39.89744        -1.63300
O         22.84238        37.47997        -2.20873
O         32.29564        31.27125        -1.41042
O         27.60557        33.62242         2.18863
O         17.63698        48.54567         1.28506
O         22.79542        27.97478         2.49168
O         31.57488        21.51163        -1.38619
O         14.76857        39.18291         1.64885
O         26.42978         9.49555         1.31045
O         14.51037        20.77415         2.02139
H         13.71922        21.23657         2.37159
O         21.21214        31.54333        -1.56798
H         21.23944        30.58823        -1.82350
O         26.17680        18.19823        -0.91631
H         26.82900        17.80980        -1.53725
O         35.81616        27.17318         1.72179
H         34.95174        27.34359         2.16533
O         29.16377        37.98590        -1.59000
H         29.83674        38.54244        -2.05798
O         29.51226        42.68038         1.69848
H         29.61274        41.79071         2.11152
O         25.59517        40.24401         1.41067
H         24.75446        40.66121         1.69350
O         33.53738        46.47199        -1.38913
H         32.71192        46.34194        -1.91477
O         20.22559         9.69372         1.02945
H         20.88999         9.89448         1.72128
O         29.59433        21.04624         2.32775
H         29.34776        20.18116         2.72224
O         22.28117        20.97524        -1.20483
H         22.26030        20.07637        -1.59317
O         25.32541        37.70274        -1.94089
H         24.70225        37.89195        -2.67895
O         18.52991        14.76835        -1.92450
H         17.75231        15.26676        -2.25621
O         13.38996        27.33245         2.42822
H         12.58155        27.76260         2.78222
O          8.45982        40.22009         0.07934
H          7.61727        39.93879         0.48712
O         27.39449        13.19275         2.58433
H         26.55388        13.00971         3.06507
O         19.07174        18.12884         2.40390
H         19.44406        17.28812         2.77474
O         15.62202        32.63227        -1.42541
H         14.63637        32.69810        -1.64361
O         20.41133        33.08120         1.67670
H         21.20176        32.78689         2.17810
O         20.45434        45.99942        -1.86456
H         19.58783        45.57991        -2.06168
O         26.75635        13.15538        -1.01244
H         26.87329        12.47488        -1.70804
O         19.64939        33.47992        -1.86915
H         18.96911        34.01972        -2.32405
O         30.79421        46.29808        -1.73829
H         30.28789        45.57046        -2.17142
O         30.04912        51.02633         1.91018
H         29.85767        50.12968         2.28255
O         27.57871        38.26806         1.58044
H         25.69501        37.81732         2.30089
O         25.60722        54.27429        -2.40856
H         24.81276        53.72411        -2.57725
O         33.14317        35.87994         1.81094
H         32.32805        36.31006         2.14762
O         14.42254        29.78819        -1.23583
H         14.88930        30.62422        -1.47852
O         13.49992        48.71402        -1.12518
H         13.85666        48.48040        -2.00636
O         23.29291        41.86122        -2.43585
H         22.55643        41.33659        -2.81823
O         21.15891        28.78747        -1.37218
H         20.48436        28.25245        -1.84420
O         23.35484         5.43803         0.13840
H         23.40969         4.46685         0.01331
O         21.41461        22.26379         2.10793
H         22.12252        21.87230         2.66166
O         29.46382        43.64589        -1.86408
H         28.68767        43.09148        -2.10023
O         29.80884        39.72579         1.63778
H         29.06459        39.30221         2.13209
O         26.98748        39.49484        -1.86032
H         27.71832        38.87419        -2.11018
O         26.50154        26.81540        -1.21523
H         27.31265        26.46788        -1.66564
O         32.89782        27.27845         1.75698
H         32.08645        27.77114         2.02338
O         26.41830        18.77717         2.67110
H         25.86570        18.23635         3.28744
O         13.50720        35.98996         2.49226
H         12.87098        36.64593         2.85142
O         31.91069        26.89770        -1.79111
H         31.07122        26.56634        -2.18282
O         37.86358        24.53442        -0.78669
H         37.68744        24.77434        -1.72225
O         20.90451        57.38263         1.93217
H         20.93459        56.43891         2.20191
O         29.90716        31.42135         2.45046
H         29.84969        30.58295         3.00327
O         29.86409        50.33408        -1.67715
H         30.46447        49.86500        -2.29224
O         30.07117        16.32149         2.08529
H         30.37928        17.20476         2.37005
O         20.19037        15.62907         2.44286
H         21.02936        15.37054         2.91606
O         12.36789        39.99560         2.17448
H         12.66874        40.92742         2.21872
O         16.23985        35.97012         2.12096
H         15.37595        36.05914         2.59581
O         19.36338        22.13175        -1.74703
H         19.98738        22.78450        -2.14918
O         27.10841        22.53519         2.64480
H         27.99038        22.13558         2.84568
O         28.13012        57.36525        -0.65086
H         28.06011        57.38986         0.32522
O         19.63861        46.60614         1.67646
H         18.97285        47.22553         2.06028
O         16.05652        32.29264         2.17918
H         16.02986        31.54878         2.81604
O         17.31238        44.22587        -2.19470
H         16.70791        43.71760        -2.77595
O         12.99086        39.75666        -1.46693
H         12.15858        40.17227        -1.77781
O         22.74882        15.48738         2.98150
H         23.12940        16.21247         3.53269
O         20.21414        10.32445        -2.57678
H         19.53532        10.15754        -3.26336
O         30.34131        40.29145        -1.94286
H         31.11907        40.67059        -2.40751
O         36.55652        26.66642        -1.85664
H         36.52379        27.59761        -2.16168
O         17.92789        44.18708         1.40935
H         18.64858        44.63401         1.91068
O         20.40603        36.98294        -2.56035
H         21.27963        36.86656        -3.00205
O         31.79785        46.61262         1.80635
H         30.96364        47.02961         2.11218
H          4.95276        31.21742        -0.03774
H          4.94603        33.65839         0.01344
H          7.42277        26.91425         0.08018
H          6.23034        29.04083        -0.08992
H          6.21959        35.84895         0.05724
H          7.45536        37.97135         0.41684
H          9.89408        22.59487         0.01409
H          8.64902        24.74331         0.07689
H          9.37949        39.82952         1.90850
H          9.85125        42.16808        -0.07032
H         12.30307        18.31609        -0.21601
H         11.11617        20.48610        -0.19267
H         11.07680        44.36530        -0.11587
H         12.32128        46.52438        -0.20131
H         14.88507        13.97073        -0.29475
H         13.60747        16.11381        -0.24424
H         13.90212        48.43281         0.86463
H         14.82569        50.84785        -0.29555
H         17.45326         9.89533        -1.30212
H         16.16554        11.86373        -0.54043
H         16.05872        52.98822        -0.16963
H         17.33887        55.17680        -0.01731
H         20.02816         5.74342        -2.23046
H         18.79724         7.79524        -1.86511
H         18.64863        57.30725         0.00578
H         19.92318        59.42815         0.15995
H         23.52195         2.71100        -3.33688
H         21.32010         3.76582        -2.90908
H         23.24044        62.70436        -0.83391
H         21.11232        61.50631        -0.37273
H         25.63317         3.91203        -2.83677
H         26.79133         5.91437        -1.97032
H         26.62886        59.30650        -1.07630
H         25.38690        61.45461        -1.02589
H         27.94964         7.86318        -1.15059
H         29.22991         9.90399        -0.21187
H         29.07805        55.16065        -0.28867
H         27.10603        56.66358        -2.28756
H         30.38606        11.96266         0.19447
H         31.53115        14.12242         0.02144
H         31.44654        50.86169        -0.39726
H         30.30477        53.10806         0.22583
H         32.91601        16.19821         0.36872
H         33.99344        18.23897         0.25524
H         34.05948        46.50292         0.60972
H         32.75612        48.76194        -0.31599
H         35.22215        20.41367        -0.10358
H         36.44560        22.54302        -0.19120
H         36.53495        42.27645         0.33827
H         35.32941        44.40192         0.10251
H         37.18455        25.13392         1.06788
H         39.01377        26.89151        -0.30818
H         39.01894        37.92308         0.84412
H         37.76890        40.11149         0.72714
H         40.23495        28.97430         0.13756
H         41.47654        31.13178         0.38784
H         41.49975        33.56693         0.64397
H         40.25581        35.73848         0.81176
