         420
 CSIRO Nanostructure Databank - Neutral Graphene Oxide Data Set
C         27.99211        27.43884         1.24972
C         27.94511        28.86938         1.05228
C         26.70976        29.56661         1.07914
C         27.85334        31.67650         0.64128
C         26.67106        30.93508         0.89834
C         27.83547        33.11566         0.48205
C         26.62922        33.86149         0.48976
C         27.85410        35.94716         0.26652
C         26.63502        35.23960         0.35154
C         27.91677        37.40510         0.19716
C         27.11360        38.32026        -0.40006
C         27.89082        40.28526         1.06839
C         27.70398        39.67947        -0.33365
C         27.99696        41.76884         1.12696
C         26.88991        42.49401         1.60285
C         28.06972        44.58871         1.25458
C         26.91163        43.88064         1.64966
C         28.11146        46.01482         1.27908
C         30.41604        27.37313         0.89504
C         29.16142        26.73170         1.14636
C         30.45941        28.88365         0.97237
C         29.13131        29.57953         0.79873
C         30.29409        31.70006         0.19758
C         29.09493        30.97877         0.56322
C         30.28550        33.07446         0.08354
C         29.06411        33.81154         0.29284
C         30.35423        35.94027         0.13430
C         29.07430        35.23383         0.24499
C         30.39382        37.35667         0.26849
C         29.15602        38.05399         0.76862
C         30.25141        40.29102        -0.00466
C         29.02683        39.53512         0.42539
C         30.34773        41.73944         0.26960
C         29.17915        42.44662         0.73239
C         30.41975        44.57918         0.48757
C         29.22527        43.87113         0.82679
C         30.43780        46.00037         0.52797
C         29.24852        46.69147         0.91423
C         32.87677        24.57131         0.83395
C         31.69543        25.25076         0.89900
C         32.86005        27.37233         0.39510
C         31.62234        26.67675         0.72951
C         32.84140        28.75712         0.10908
C         31.54036        29.46031         0.08917
C         32.78250        31.63348        -0.43224
C         31.49822        30.92859        -0.21139
C         32.78410        33.06757        -0.43408
C         31.46142        33.79445        -0.54821
C         32.77799        35.94027        -0.18896
C         31.53772        35.24694        -0.15102
C         32.79664        37.36344        -0.13016
C         31.56730        38.05981         0.02254
C         32.81438        40.25281        -0.14640
C         31.54047        39.52407        -0.17544
C         32.79696        41.66397        -0.17811
C         31.55823        42.40890         0.04024
C         32.78356        44.56003        -0.18683
C         31.60224        43.85188         0.12710
C         32.83935        45.97938        -0.12191
C         31.65589        46.70958         0.22323
C         32.92231        48.79413         0.12405
C         31.72195        48.11949         0.30538
C         35.43887        23.08585         0.75217
C         35.32971        24.50441         0.51528
C         34.12357        25.22074         0.52593
C         35.25916        27.36588        -0.09464
C         34.08588        26.65174         0.26384
C         35.25334        28.76438        -0.28838
C         34.01323        29.47002        -0.23079
C         35.22488        31.57321        -0.83344
C         33.96619        30.88931        -0.50274
C         35.23782        33.10501        -0.74649
C         33.97642        33.79102        -0.44784
C         35.24443        35.92660        -0.28563
C         34.01502        35.22594        -0.31031
C         35.25293        37.36310        -0.24877
C         34.03154        38.08261        -0.21066
C         35.26472        40.23174        -0.29926
C         34.03379        39.52588        -0.20576
C         35.25732        41.65637        -0.42810
C         34.02317        42.35042        -0.38141
C         35.29086        44.54467        -0.76197
C         33.96988        43.80075        -0.62126
C         35.31450        45.98824        -0.50908
C         34.08723        46.69163        -0.30341
C         35.40383        48.87378        -0.13949
C         34.10708        48.10316        -0.15864
C         35.37198        50.18670        -0.88262
C         37.92564        23.12126         0.72619
C         36.62715        22.41808         0.74963
C         37.88518        24.59721         0.39934
C         36.55884        25.17591         0.04877
C         37.79554        27.38122        -0.39284
C         36.52120        26.63693        -0.29846
C         37.74347        28.75252        -0.59947
C         36.49724        29.46520        -0.55178
C         37.73657        31.60498        -0.70164
C         36.50274        30.85709        -0.70934
C         37.68974        33.03435        -0.45948
C         36.51614        33.77592        -0.43998
C         37.70182        35.92571        -0.08934
C         36.50494        35.21298        -0.24627
C         37.73218        37.36868        -0.11839
C         36.49415        38.08154        -0.23279
C         37.74114        40.20616        -0.28668
C         36.50054        39.50196        -0.27575
C         37.75414        41.62804        -0.43648
C         36.51391        42.36719        -0.54359
C         37.76162        44.49702        -0.72327
C         36.53977        43.77300        -0.64420
C         37.79588        45.90570        -0.73036
C         36.57007        46.66177        -0.56401
C         37.83024        48.77106        -0.75734
C         36.61345        48.07003        -0.53133
C         37.81882        50.17992        -0.98166
C         36.53024        50.81655        -1.18635
C         40.45079        20.29547         0.55589
C         39.29657        21.00149         0.72733
C         40.32908        23.14637         0.08913
C         39.20137        22.41356         0.46819
C         40.32189        24.57368        -0.11700
C         39.09917        25.29087        -0.08376
C         40.27031        27.38913        -0.66819
C         39.04152        26.66441        -0.40371
C         40.24660        28.75550        -0.91817
C         38.94635        29.47627        -1.14356
C         40.22539        31.64864        -0.73095
C         38.96901        30.93896        -0.78041
C         40.21226        33.02684        -0.49758
C         38.96170        33.69354        -0.13223
C         40.24662        35.92231        -0.03249
C         38.96395        35.19306         0.08704
C         40.20799        37.35752         0.41708
C         38.94677        38.07845        -0.00602
C         40.21648        40.21189        -0.12325
C         38.97097        39.49282        -0.13832
C         40.22979        41.60986        -0.34430
C         38.99460        42.29598        -0.52448
C         40.32576        44.47200        -0.85052
C         39.00038        43.72145        -0.87739
C         40.28847        45.93022        -0.71283
C         39.05423        46.61563        -0.75765
C         40.29293        48.75470        -0.84365
C         39.06305        48.04566        -0.78599
C         40.28670        50.17669        -0.99229
C         39.05059        50.88706        -1.10771
C         40.28553        52.97928        -1.37618
C         39.09218        52.30396        -1.30342
C         42.95592        20.27661         0.03206
C         41.62211        20.92000        -0.05885
C         42.84132        23.18422        -0.23031
C         41.57549        22.42775        -0.23238
C         42.81017        24.55419        -0.39021
C         41.53974        25.26806        -0.43346
C         42.75680        27.37680        -0.85187
C         41.52048        26.65534        -0.65902
C         42.75767        28.76731        -0.98055
C         41.49065        29.50254        -1.32393
C         42.70110        31.60790        -0.63121
C         41.48862        30.94638        -0.86506
C         42.67053        33.06519        -0.32397
C         41.45132        33.83558        -0.78040
C         42.68683        35.98424        -0.19081
C         41.43783        35.27075        -0.27255
C         42.70681        37.37306         0.01582
C         41.47648        38.10221         0.10129
C         42.70947        40.21965         0.02352
C         41.46472        39.49479         0.00674
C         42.70810        41.63570        -0.04388
C         41.48737        42.34258        -0.29742
C         42.74497        44.47653        -0.26706
C         41.53300        43.74029        -0.44290
C         42.75129        45.91214        -0.43934
C         41.52471        46.62748        -0.61061
C         42.76731        48.75944        -0.74145
C         41.53135        48.05055        -0.72834
C         42.76817        50.18055        -0.91987
C         41.52746        50.88008        -1.05602
C         42.76620        52.98135        -1.31401
C         41.52789        52.29045        -1.25036
C         44.09024        20.98775         0.03031
C         45.35213        23.17767        -0.40670
C         44.12517        22.49244         0.16741
C         45.30980        24.55912        -0.67102
C         44.04949        25.28981        -0.60974
C         45.21424        27.37626        -1.37898
C         44.00216        26.64919        -0.86441
C         45.20706        28.84145        -1.04285
C         43.99721        29.51278        -0.91912
C         45.21419        31.64612        -0.51227
C         43.95913        30.94350        -0.69710
C         45.22238        33.08278        -0.25767
C         43.94412        33.81566        -0.18386
C         45.22656        35.97350        -0.01187
C         43.97960        35.28624        -0.53900
C         45.20380        37.40218         0.14191
C         43.96126        38.09337         0.08820
C         45.15882        40.23670         0.36346
C         43.93944        39.51371         0.15347
C         45.12559        41.64246         0.42665
C         43.93113        42.35609         0.14941
C         45.19341        44.50770         0.12648
C         43.93820        43.78736         0.04543
C         45.21013        45.93822        -0.15739
C         43.98121        46.62941        -0.40299
C         45.22826        48.77735        -0.56121
C         43.99357        48.05249        -0.57308
C         45.23763        50.18582        -0.79004
C         43.99700        50.89719        -0.96999
C         43.95993        52.30598        -1.17693
C         47.76831        23.17155        -0.75403
C         46.58687        22.50030        -0.47386
C         47.78396        24.57049        -0.93344
C         46.53443        25.27473        -0.91979
C         47.72313        27.42410        -1.07261
C         46.51291        26.68276        -1.06901
C         47.73090        28.84534        -1.02812
C         46.46473        29.61595        -1.29696
C         47.72410        31.75210        -0.67134
C         46.42459        30.98547        -0.68567
C         47.62992        33.01739         0.15023
C         46.38386        33.79142        -0.04271
C         47.66357        35.88766         0.41433
C         46.39967        35.22802         0.14880
C         47.72452        37.37506         0.13950
C         46.42199        38.12674         0.34036
C         47.63308        40.28326         0.70740
C         46.40529        39.51996         0.47641
C         47.62382        41.63989         0.87218
C         46.31233        42.39995         0.95629
C         47.64972        44.51017         0.36228
C         46.35710        43.81511         0.42415
C         47.62304        46.00115         0.40646
C         46.40789        46.67888        -0.06736
C         47.70572        48.79236        -0.32944
C         46.45244        48.08263        -0.29821
C         47.67501        50.18625        -0.61862
C         46.49070        50.85748        -0.82073
C         50.29958        24.64286        -1.19983
C         49.01170        25.30989        -1.12192
C         50.19455        27.49372        -1.31436
C         48.96724        26.70436        -1.12028
C         50.20214        28.86665        -0.79835
C         48.94260        29.55145        -0.70223
C         50.10201        31.49072         0.37825
C         48.91309        30.90463        -0.32850
C         50.16698        33.01056         0.44153
C         48.87382        33.71650         0.61698
C         50.12067        35.89944         0.77017
C         48.84286        35.20120         0.65238
C         50.20432        37.26330         0.74714
C         48.92171        38.03126         0.79080
C         50.18439        40.23613         0.83465
C         48.88837        39.51028         0.94813
C         50.18985        41.69618         1.11547
C         48.86187        42.40581         1.31864
C         50.14386        44.62301         1.01294
C         48.91481        43.80938         0.71846
C         50.20672        46.00230         0.48983
C         48.94573        46.75463         0.41182
C         50.21540        48.68652        -0.40872
C         48.94908        48.11996        -0.12131
C         51.47104        25.31000        -1.35406
C         52.76359        27.54002        -1.31204
C         51.50782        26.77156        -1.52448
C         52.70987        28.86312        -0.81315
C         51.43250        29.53223        -0.52485
C         52.61084        31.52477         0.40940
C         51.39876        30.84924        -0.04932
C         52.62085        32.96968         0.62351
C         51.35897        33.66889         0.66074
C         52.60794        35.77508         1.55108
C         51.33844        35.09875         1.09648
C         52.70084        37.28188         1.42612
C         51.56896        37.93323         0.62134
C         52.69588        40.18985         1.13684
C         51.47406        39.46499         0.75777
C         52.65174        41.66023         1.48372
C         51.36476        42.37528         1.15587
C         52.67780        44.52185         0.73551
C         51.42779        43.86161         1.17819
C         52.67620        45.86388         0.31497
C         51.41918        46.61882         0.21169
C         51.39373        47.98448        -0.23794
C         55.16769        27.73022        -1.66311
C         53.99851        26.98374        -1.70244
C         55.15429        29.03782        -1.12570
C         53.92940        29.56272        -0.64166
C         55.16217        31.65369         0.08207
C         53.96505        30.82695         0.09401
C         55.10721        32.91500         0.74418
C         53.84539        33.60212         0.93836
C         55.00964        35.30333         2.17068
C         53.85303        34.92713         1.50751
C         54.98626        37.60835         2.46797
C         53.82117        38.05447         1.71375
C         55.07772        40.27915         1.60546
C         53.84735        39.50416         1.44468
C         55.10189        41.66647         1.12297
C         53.89925        42.37304         1.03931
C         55.11078        44.37945         0.32047
C         53.88355        43.75255         0.69061
C         55.09322        45.74954        -0.05620
C         53.91364        46.45846        -0.07418
C         56.34529        29.84044        -1.05014
C         56.33799        31.10470        -0.50425
C         56.30537        33.49552         1.24905
C         56.24455        34.61821         2.03992
C         56.09312        38.38533         2.70893
C         56.17845        39.71087         2.20053
C         56.31851        42.31208         0.76378
C         56.31761        43.62781         0.35358
O         41.40323        21.51079        -1.38698
O         31.14870        29.91354        -1.23833
O         43.15108        33.45389         1.00050
O         47.99778        32.97558         1.55589
O         30.70743        39.91922        -1.34712
O         51.64667        35.26581         2.54241
O         38.00224        24.15930         1.78819
O         48.55131        43.92252        -0.68869
O         53.34370        30.75513         1.42405
O         39.74010        44.00276        -2.11947
O         38.96995        34.27193         1.24412
O         50.84226        40.00544        -0.47538
O         48.13152        46.57015         1.65313
O         50.73126        44.45603         2.34943
O         50.76544        27.30220        -2.67745
O         36.45760        25.59051        -1.35608
O         35.18873        32.41227        -2.03961
O         48.73514        38.62896         2.11841
O         34.47696        44.18613        -1.94446
O         54.99268        36.36442         3.08112
O         40.12856        37.31586         1.89433
H         40.73177        36.60694         2.20495
O         38.74243        29.46596        -2.63275
H         38.49130        28.54942        -2.88231
O         41.47294        29.56613        -2.80282
H         40.52820        29.71864        -3.06362
O         46.49183        29.85245        -2.79940
H         45.65357        30.31702        -3.02242
O         35.60253        49.22736         1.28618
H         36.44146        49.73400         1.33961
O         41.55832        33.91667        -2.23706
H         40.72947        34.30293        -2.58881
O         29.16310        37.89650         2.22472
H         29.18364        36.93392         2.41398
O         49.96874        31.05491         1.79004
H         50.72590        31.43244         2.28861
O         51.96931        37.69100        -0.76404
H         51.48534        38.35172        -1.31340
O         44.10693        35.33160        -2.00134
H         43.94101        36.25361        -2.28956
O         30.90146        29.19984         2.34198
H         30.25283        28.80056         2.95974
O         27.17567        39.73173         2.13950
H         27.63423        38.90322         2.41865
O         52.66069        41.69665         2.96064
H         53.53860        41.37356         3.25848
O         48.00404        37.48174        -1.30072
H         47.31178        36.97624        -1.77789
O         45.12083        27.33076        -2.85668
H         45.77293        27.98934        -3.19794
O         31.16437        33.80869        -1.98905
H         31.20144        32.88109        -2.30780
O         47.94865        32.20298        -2.05965
H         47.74021        31.43155        -2.64177
O         44.22905        22.70967         1.62619
H         44.33295        23.67395         1.77481
O         46.03972        42.55564         2.39905
H         46.91243        42.65571         2.85714
O         48.73597        42.59578         2.76218
H         49.48560        43.18266         3.04193
H         27.04655        26.90834         1.43260
H         25.78218        29.00821         1.27033
H         25.70249        31.44914         0.95849
H         25.66480        33.34649         0.59283
H         25.68758        35.79627         0.34824
H         26.17197        38.10147        -0.91996
H         27.61530        40.35760        -1.19686
H         25.99884        41.94138         1.92959
H         26.03108        44.43883         1.99852
H         27.21459        46.56856         1.59204
H         29.11874        25.63653         1.22677
H         29.23641        47.78876         0.94073
H         32.86850        23.48748         1.01093
H         30.78067        24.68835         1.12887
H         32.94693        49.88527         0.25015
H         30.82740        48.70473         0.55327
H         34.51721        22.49763         0.86692
H         34.40823        50.68073        -1.07288
H         36.62031        21.32133         0.82487
H         36.49724        51.81404        -1.64758
H         40.52914        19.26087         0.92051
H         38.42804        20.49544         1.17232
H         40.29531        54.06881        -1.52507
H         38.15313        52.86721        -1.38907
H         42.99290        19.17574         0.03558
H         42.76402        54.06986        -1.46970
H         45.04641        20.44788         0.08497
H         44.89547        52.87844        -1.22575
H         48.70243        22.59578        -0.78644
H         46.63572        21.42059        -0.28216
H         48.61428        50.75474        -0.64377
H         46.52950        51.93851        -1.00751
H         50.33467        23.55069        -1.08659
H         50.27599        49.71653        -0.78670
H         52.42181        24.75904        -1.30305
H         52.33550        48.49745        -0.47013
H         56.11002        27.30492        -2.03600
H         54.02394        25.96094        -2.10389
H         56.03504        46.23869        -0.34353
H         53.93882        47.50917        -0.39032
H         57.27719        29.43086        -1.46535
H         57.26458        31.69612        -0.51050
H         57.26075        32.97096         1.11531
H         57.13234        35.00452         2.55652
H         56.92039        37.96835         3.29672
H         57.10602        40.28233         2.33840
H         57.26237        41.75023         0.79579
H         57.25807        44.11693         0.06150
