         347
 CSIRO Nanostructure Databank - Neutral Graphene Oxide Data Set
C          1.35560         2.26791        -0.59368
C          1.36158         3.62061        -0.29197
C          2.49288         1.48915        -0.34786
C          2.51764         4.23892         0.25985
C          1.29920         6.35894         0.66969
C          1.27714         7.72784         0.76884
C          2.51288         5.62079         0.63151
C          2.51163         8.49520         0.55796
C          1.29329        10.71169         0.61729
C          1.26010        12.08102         0.65465
C          2.51817         9.96682         0.70268
C          2.44599        12.86454         0.86036
C          1.24086        15.03126         0.46893
C          1.26689        16.30547         0.01483
C          2.44597        14.25306         0.71447
C          2.53723        16.93653        -0.48978
C          2.53576        18.44371        -0.53137
C          3.65988         2.07184         0.16742
C          3.69067         3.45325         0.44681
C          4.83811         1.16712         0.47133
C          4.93345         4.09898         0.94851
C          3.73648         6.31125         1.20643
C          3.82014         7.74668         0.72875
C          5.04259         5.57916         1.02222
C          5.06731         8.49472         0.99849
C          3.72241        10.62483         0.91091
C          3.68453        12.09190         1.15733
C          4.98994         9.91705         0.98980
C          5.00356        12.84339         1.20066
C          3.68952        15.04833         0.81591
C          3.75486        16.39654         0.21935
C          5.01078        14.32707         1.03528
C          4.93663        17.09956         0.22368
C          3.67990        19.15165        -0.44611
C          4.96529        18.52123        -0.14303
C          6.14363         1.89884         0.29544
C          6.17910         3.25928         0.88123
C          7.24846         1.32582        -0.26012
C          7.51579         3.94077         0.96562
C          6.28432         6.25552         1.15638
C          6.29691         7.77102         1.16465
C          7.46936         5.44749         1.10642
C          7.47421         8.57524         1.12434
C          6.20195        10.68027         0.93694
C          6.23147        12.10088         0.87338
C          7.42869         9.97716         0.83420
C          7.41723        12.80053         0.59061
C          6.23748        14.97858         0.54757
C          6.21692        16.41972         0.39235
C          7.39772        14.23686         0.40942
C          7.39534        17.13098         0.25355
C          6.12801        19.23416        -0.10498
C          7.40886        18.62810         0.42569
C          8.50198         2.03885        -0.41501
C          8.47896         3.49235        -0.12650
C          9.67175         1.44942        -0.82349
C          9.73556         4.28045        -0.30978
C          8.81294         5.93840         1.23516
C          8.82393         8.09974         1.32825
C          9.89220         5.52789         0.47518
C          9.93483         8.57551         0.69844
C          8.61723        10.68227         0.47598
C          8.63681        12.08212         0.36380
C          9.81893         9.91442         0.12006
C          9.90312        12.79042         0.24434
C          8.64034        14.90995         0.00300
C          8.64249        16.42763        -0.03512
C          9.92639        14.23582         0.25365
C          9.93068        17.12568         0.07692
C          8.68314        19.25714        -0.07407
C          9.89555        18.57291        -0.08682
C         10.92811         2.16663        -0.88066
C         10.98229         3.56758        -0.65857
C         12.13930         1.45598        -1.06056
C         12.22071         4.25266        -0.62512
C         10.99983         6.43843        -0.06110
C         11.23119         7.77344         0.69601
C         12.29291         5.68119        -0.32538
C         12.39447         8.53987         0.08498
C         11.12203        10.66892        -0.09683
C         11.10492        12.10408         0.11945
C         12.39637         9.93106         0.00063
C         12.38547        12.75843         0.42697
C         11.10151        14.96542         0.36358
C         11.11534        16.41263         0.19807
C         12.36144        14.25068         0.67387
C         12.39040        17.11418         0.14871
C         11.13816        19.23655        -0.28449
C         12.37482        18.56180        -0.12132
C         13.36855         2.10733        -1.02655
C         13.42296         3.51612        -0.85639
C         14.63284         1.30924        -1.25729
C         14.68602         4.20128        -0.91984
C         13.47581         6.37424        -0.46444
C         13.55802         7.82020        -0.29680
C         14.64342         5.68727        -1.13634
C         14.73496         8.52725        -0.65766
C         13.60606        10.66487        -0.20578
C         13.64595        12.07619         0.02049
C         14.79115         9.96248        -0.55832
C         14.84482        12.78278        -0.10927
C         13.67167        15.02400         0.79188
C         13.59099        16.43622         0.25324
C         14.92424        14.21808         0.31048
C         14.84642        17.14823         0.09847
C         13.56864        19.27665        -0.11817
C         14.82220        18.62853         0.39656
C         15.91084         2.05944        -0.95461
C         15.89307         3.50744        -0.95132
C         17.08949         1.36768        -0.81573
C         17.16235         4.21034        -0.93450
C         15.94740         6.40465        -0.94819
C         15.93448         7.78360        -0.94650
C         17.20122         5.66886        -1.02114
C         17.15694         8.47363        -1.50987
C         15.97097        10.71915        -0.84393
C         16.02254        12.11165        -0.59920
C         17.14651        10.00396        -1.40537
C         17.27153        12.85815        -0.83354
C         16.12371        15.00709        -0.12983
C         16.00836        16.48857        -0.19420
C         17.29565        14.31965        -0.74456
C         17.19219        17.27123        -0.60524
C         16.09560        19.36190         0.08450
C         17.25059        18.71373        -0.25488
C         18.34878         2.04795        -0.65680
C         18.33066         3.48982        -0.73410
C         19.55960         1.36157        -0.55230
C         19.63788         4.16554        -0.76023
C         18.39953         6.35832        -1.03183
C         18.43800         7.86736        -0.89361
C         19.67906         5.64564        -1.00580
C         19.72599         8.47783        -1.48077
C         18.46381        10.73312        -1.40088
C         18.44959        12.18326        -1.10905
C         19.75264         9.99037        -1.29980
C         19.69230        12.89384        -1.47655
C         18.44400        15.04662        -0.95914
C         18.44716        16.53661        -0.94612
C         19.69731        14.40119        -1.40871
C         19.73062        17.23803        -0.71645
C         18.52219        19.37657        -0.34187
C         19.72351        18.68574        -0.48872
C         20.81498         2.01943        -0.29863
C         20.76839         3.51276         0.01529
C         21.99914         1.35852        -0.12381
C         22.08176         4.23235        -0.24366
C         20.92678         6.39313        -0.72077
C         20.95978         7.79060        -0.92688
C         22.10210         5.66593        -0.44198
C         22.17072         8.49558        -0.80432
C         20.92939        10.66016        -1.20117
C         20.98960        12.13068        -1.42804
C         22.26235         9.93344        -1.25695
C         22.29118        12.85544        -1.18656
C         20.99578        15.13726        -1.18764
C         20.89836        16.53144        -0.68011
C         22.28977        14.36173        -1.03618
C         22.12463        17.20917        -0.20800
C         20.97715        19.37354        -0.45820
C         22.19000        18.68422        -0.35477
C         23.16553         2.11279         0.47880
C         23.24114         3.51867        -0.08418
C         24.48033         1.37099         0.47818
C         24.52695         4.20833        -0.23347
C         23.35014         6.37903        -0.33061
C         23.35576         7.81411        -0.47471
C         24.54708         5.67110        -0.22532
C         24.56566         8.54898        -0.21346
C         23.40963        10.70606        -0.60405
C         23.44359        12.08596        -0.64281
C         24.54698         9.94218        -0.14612
C         24.74619        12.84744        -0.46763
C         23.44592        14.98495        -0.33143
C         23.37808        16.43447        -0.00172
C         24.57612        14.29338        -0.04384
C         24.66687        17.16809         0.04572
C         23.44990        19.31531        -0.33694
C         24.66972        18.61146        -0.16333
C         25.68959         2.00120         0.44258
C         25.78978         3.44374         0.09096
C         26.96045         1.32998         0.62034
C         26.97686         4.19435         0.56154
C         25.89075         6.34652        -0.26122
C         25.80279         7.83091         0.02660
C         26.84341         5.68967         0.78199
C         26.94668         8.47961         0.39047
C         25.67464        10.64515         0.51134
C         25.74097        12.12691         0.42439
C         26.94845         9.89675         0.90219
C         27.05868        12.78603         0.58145
C         25.75209        15.00133         0.55853
C         25.80528        16.47550         0.35622
C         27.04056        14.24304         0.81681
C         27.07963        17.20258         0.52117
C         25.90792        19.27657        -0.21371
C         27.12975        18.60279         0.03665
C         28.13251         2.03743         0.78003
C         28.10177         3.49915         0.89930
C         29.41981         1.36048         0.80343
C         29.31876         4.19441         1.39639
C         28.17292         6.39090         0.77010
C         28.20276         7.75037         0.53623
C         29.37887         5.73160         1.39292
C         29.43710         8.48821         0.50461
C         28.24227        10.63091         0.55797
C         28.25014        12.06577         0.52693
C         29.44787         9.89745         0.49191
C         29.49976        12.80411         0.30848
C         28.40582        14.92918         0.99898
C         28.38250        16.43868         0.71337
C         29.51317        14.16635         0.30375
C         29.61431        17.10479         0.24452
C         28.36593        19.23899        -0.03242
C         29.60115        18.51797         0.04385
C         30.58844         2.00942         1.01447
C         30.61025         3.43108         1.42456
C         31.88325         4.19693         1.35111
C         30.66322         6.25223         0.73327
C         30.67648         7.70671         0.30299
C         31.91313         5.50362         1.03795
C         31.92613         8.46084         0.07312
C         30.78084        10.62258         0.63178
C         30.77262        12.03474        -0.02187
C         31.94991         9.80137         0.12134
C         31.97267        12.82297         0.47350
C         30.77226        14.86417        -0.16632
C         30.79078        16.37180        -0.01244
C         31.97454        14.15863         0.42573
C         31.97200        17.06151        -0.32042
C         30.82068        19.18385        -0.23566
C         31.99579        18.46248        -0.38220
O         22.50764        16.73410         1.15426
O         17.58749        17.06702        -2.02063
O         17.68719        10.55035        -2.65303
O         16.01453        14.46752         1.25499
O         12.30718        13.30770         1.80369
O          5.46072         3.37953         2.16482
O         30.98557        10.76962         2.01445
O         27.72613        17.10671         1.84266
O         19.93717         4.66498        -2.09854
O          4.35558        15.02155         2.13273
O          8.56124        15.61181        -1.27874
O         21.96289        15.05140        -2.28686
O          3.29378         7.98628        -0.60373
O         25.44008         3.67244        -1.32039
O         19.56289        13.71404        -2.68511
O         21.89867        12.44059        -2.54685
O         25.18127        11.51157         1.62102
O          8.97937         6.98184         2.15585
O          4.34970        12.42053         2.43278
O         26.10316        14.57374         1.91342
O          8.62725         4.33178        -1.31242
O         30.48804         6.58761        -0.66623
O         29.82504         3.65613         2.66647
O         20.54247         3.61763         1.40971
O         10.31493        10.17070        -1.22656
O         14.69854        18.71045         1.87161
H         14.20159        17.91819         2.17505
O         10.49836         6.84154        -1.36365
H         10.30666         6.03749        -1.89253
O         11.64101         7.48900         2.04897
H         10.85142         7.14218         2.52784
O         19.74799         8.25089        -2.91018
H         20.61394         8.57236        -3.24751
O          3.51554         6.40140         2.66036
H          3.61469         5.49968         3.03392
O         13.85937        15.27532         2.20920
H         13.64723        14.43446         2.67664
O         30.86503        11.85872        -1.44986
H         30.83715        12.76586        -1.84582
O         26.24601         5.88098         2.09115
H         26.96879         5.97836         2.74975
O         28.73607        14.79732         2.40182
H         28.07376        15.33466         2.89392
O         18.47106         8.20088         0.51748
H         17.79905         7.65938         0.98297
O          7.39567        18.89278         1.88129
H          6.57468        18.49346         2.24183
O         14.37105         5.82824        -2.59001
H         14.87079         6.60786        -2.91920
O         14.58162         0.06742        -0.54313
H         14.57912         0.26532         0.41564
O         22.83642         2.29031         1.89628
H         21.94430         2.76747         1.92600
O         26.96932         9.77749         2.35007
H         26.50110        10.56956         2.70635
O          2.66781        16.49022        -1.88952
H          3.45725        16.93495        -2.26570
O         26.46657         6.18198        -1.57622
H         26.27513         5.25652        -1.86914
O          4.73277         0.71624         1.83490
H          4.86244         1.51151         2.40297
O         22.59634         9.84242        -2.67946
H         22.53357        10.76450        -3.03793
O         30.81326        14.64043        -1.62711
H         31.62030        15.08168        -1.96887
O         25.38230        12.88564        -1.78268
H         24.71581        13.18341        -2.43900
O          8.14091         3.44561         2.19242
H          7.44464         3.45841         2.88719
O         29.36628         6.16371         2.77658
H         29.71277         5.40751         3.31172
O         17.08625         8.11653        -2.90514
H         17.72874         8.68953        -3.38740
H          0.45523         1.80388        -1.01892
H          0.46132         4.21697        -0.48852
H          2.48158         0.41279        -0.57022
H          0.34025         5.82054         0.64733
H          0.32230         8.24979         0.91587
H          0.35409        10.16935         0.44398
H          0.29850        12.59111         0.50713
H          0.26953        14.57685         0.71573
H          0.32553        16.85998        -0.11514
H          1.58496        18.95379        -0.74908
H          4.80316         0.26051        -0.18227
H          3.66498        20.24625        -0.56313
H          7.19343         0.28712        -0.62207
H          6.11384        20.31353        -0.32271
H          9.68836         0.36923        -1.03536
H          8.68656        20.34621        -0.23618
H         12.11152         0.36628        -1.20629
H         11.14566        20.32292        -0.45865
H         14.66026         1.03419        -2.35082
H         13.54694        20.36812        -0.25892
H         17.07442         0.26763        -0.83908
H         16.12182        20.43754         0.31772
H         19.54988         0.26048        -0.59197
H         18.55162        20.46414        -0.17621
H         22.06276         0.26522        -0.24421
H         20.97764        20.47376        -0.47285
H         24.44758         0.29139         0.69536
H         23.49326        20.40888        -0.45294
H         26.97949         0.22971         0.63670
H         25.93236        20.35150        -0.44730
H         29.42718         0.28523         0.57004
H         28.40459        20.31070        -0.27946
H         31.54641         1.47381         0.94270
H         32.82017         3.64869         1.53451
H         32.87583         6.02957         0.95454
H         32.81598         7.89285        -0.23717
H         32.89262        10.33130        -0.08224
H         32.82535        12.27496         0.90001
H         32.82629        14.74713         0.79844
H         32.89775        16.49903        -0.51191
H         30.81972        20.27616        -0.35859
H         32.93984        18.98146        -0.59756
