         261
 CSIRO Nanostructure Databank - Neutral Graphene Oxide Data Set
C        -10.99718         0.76852        -1.47934
C        -10.08616         1.52138        -0.57904
C         -8.91536         0.75930        -0.01316
C         -7.73107         1.50379         0.54580
C         -6.46956         0.77519         0.88563
C         -5.18619         1.56113         1.14533
C         -3.86216         0.81115         1.17825
C         -2.56919         1.54752         1.36079
C         -1.29915         0.89087         2.01079
C         -0.01161         1.50749         1.35929
C          1.20517         0.65695         1.03394
C          2.20371         1.13827        -0.00111
C          3.44215         0.34774        -0.29525
C          4.66347         1.00916        -0.95039
C          6.01751         0.40604        -0.68431
C          7.29838         1.11202        -1.11504
C          8.64087         0.54794        -0.77645
C          9.90754         1.41458        -0.78292
C         11.10695         0.52158        -1.06402
C        -10.09911         3.05305        -0.67747
C         -8.85605         3.74818        -0.14556
C         -7.62532         2.92716         0.05343
C         -6.31473         3.63166         0.06324
C         -5.18265         3.03750         0.88223
C         -3.90236         3.80758         1.04068
C         -2.60298         3.06629         1.31668
C         -1.32265         3.72070         0.89907
C         -0.05547         2.91039         0.83629
C          0.98005         3.41003        -0.12344
C          2.16117         2.57468        -0.43684
C          3.41003         3.27795        -0.91881
C          4.60634         2.48763        -1.35854
C          5.90571         3.23059        -1.69857
C          7.22923         2.53710        -1.60834
C          8.49540         3.32838        -1.62577
C          9.79431         2.56507        -1.80223
C         -8.82840         5.10588         0.00905
C         -7.58992         5.88995         0.04348
C         -6.34720         5.11048        -0.36596
C         -5.06999         5.85621        -0.01172
C         -3.88027         5.24699         0.64636
C         -2.59838         5.81462         0.11770
C         -1.36787         4.99158         0.09341
C         -0.09413         5.71915        -0.24280
C          1.13203         4.89900        -0.28536
C          2.45449         5.50398         0.04475
C          3.64099         4.68716        -0.41882
C          4.90619         5.39633        -0.73920
C          5.87025         4.79975        -1.77973
C          7.23984         5.46343        -1.60668
C          8.46506         4.68426        -1.65270
C         -7.54802         7.25774         0.04499
C         -6.38084         8.08301        -0.54544
C         -5.11493         7.24937        -0.43194
C         -3.58866         8.13826         0.49516
C         -2.52047         7.29466        -0.14614
C         -1.22047         7.99730        -0.39641
C         -0.03069         7.19078         0.03405
C          1.27643         7.84554         0.32427
C          2.53012         6.98270         0.30681
C          3.83931         7.66392         0.02078
C          4.83954         6.90430        -0.82047
C          6.04418         7.62676        -1.34322
C          7.27784         6.82230        -1.49996
C         -6.17105         9.50431        -0.04305
C         -4.99294        10.16217         0.10764
C         -3.64749         9.56700         0.04915
C         -2.46102        10.21798        -0.14178
C         -1.12997         9.52428        -0.49401
C          0.19859        10.06211         0.04008
C          1.33800         9.33614         0.18782
C          2.69423        10.00499         0.45562
C          3.92246         9.15819         0.07379
C          5.06919         9.80476        -0.62768
C          6.08564         9.10359        -1.16626
C        -10.94474        -0.57193        -1.62574
C         -9.88596        -1.41549        -1.03095
C         -8.75824        -0.71440        -0.31268
C         -7.37197        -1.30635        -0.39714
C         -6.27179        -0.61823         0.35569
C         -5.14912        -1.39995         0.98580
C         -3.92407        -0.66759         1.45869
C         -2.61957        -1.40839         1.71392
C         -1.32893        -0.67003         1.99994
C          0.03338        -1.45695         2.12339
C          1.24397        -0.77515         1.45057
C          2.41533        -1.64382         1.05180
C          3.58955        -1.03468         0.34957
C          4.93700        -1.43153         0.88268
C          6.15503        -0.69481         0.34765
C          7.47637        -1.37951         0.48737
C          8.74164        -0.68467         0.06444
C         10.06968        -1.37339         0.12733
C         11.17594        -0.75478        -0.64830
C         -9.65475        -2.78844        -1.50489
C         -8.51931        -3.49924        -1.13750
C         -7.23181        -2.78665        -0.75613
C         -6.29282        -3.57531         0.13377
C         -5.13139        -2.89186         0.78776
C         -3.76813        -3.54005         0.73356
C         -2.53379        -2.82890         1.19403
C         -1.36928        -3.65645         1.71401
C         -0.04467        -2.93465         1.69117
C          1.23934        -3.72055         1.65162
C          2.53502        -2.93629         1.83978
C          3.89455        -3.57226         1.96980
C          5.11922        -2.61765         1.81080
C          6.66447        -3.00895         2.24143
C          7.49141        -2.83188         0.91319
C          8.86055        -3.49322         0.74353
C         10.02543        -2.80655         0.42132
C         -8.43586        -4.89678        -1.32851
C         -7.24914        -5.63087        -1.04925
C         -6.01512        -4.81352        -0.69158
C         -4.88267        -5.66196        -0.14798
C         -3.73806        -5.03673         0.58673
C         -2.39714        -5.73006         0.65271
C         -1.36335        -5.16058         1.59760
C         -0.10710        -6.02013         1.94985
C          1.26916        -5.21263         1.88564
C          2.62809        -5.86691         1.70686
C          3.96624        -5.08662         1.74202
C          5.23884        -5.73860         1.24456
C          6.54023        -4.93877         1.08928
C          7.73351        -5.67917         0.54213
C          8.91957        -4.90309         0.58405
C         -7.20182        -6.99519        -1.24344
C         -6.03310        -7.85294        -0.83860
C         -4.74933        -7.02289        -0.74652
C         -3.46867        -7.75210        -0.59037
C         -2.28586        -7.11476         0.10464
C         -1.32084        -8.10014         0.77056
C          0.00142        -7.42290         1.25955
C          1.35138        -8.02478         0.93489
C          2.66356        -7.31137         1.22584
C          3.92515        -7.90409         0.66168
C          5.22744        -7.13743         0.67373
C          6.37061        -7.61202        -0.18395
C          7.60485        -6.80984        -0.22934
C         -5.76303        -9.05318        -1.72622
C         -4.60114        -9.71431        -1.61407
C         -3.56345        -9.27911        -0.60160
C         -2.17815        -9.84254        -0.80278
C         -1.11991        -9.30188        -0.16778
C          0.17151       -10.06997        -0.07112
C          1.41001        -9.20372         0.01867
C          2.54856        -9.65938        -0.53542
C          3.93521        -9.21547        -0.14778
C          4.88064        -9.19820        -1.32656
C          6.04928        -8.54374        -1.28789
O         -4.72308         6.44236        -1.43267
O         -1.95999        -8.62563         1.90267
O         -6.35873        -0.53625        -1.10579
O         -7.46192         1.07103         1.90690
O         -5.47332         2.50049         2.21416
O          0.51016         5.36669        -1.51971
O          4.84386        -1.31211         2.35807
O         -2.96168         1.05807         0.04118
O         -3.82843        -7.13227        -1.86529
O          0.47820         2.64257         2.15983
O         -1.80077         3.79122         2.27757
O          0.34864         7.47766         1.41232
O          4.89277         7.26784        -2.22602
O          9.59817        -0.50895         1.24076
O         -2.04835         7.52945        -1.50003
O         -2.17948        -1.19075         3.06579
O          2.56992         6.01492         1.39915
O          8.05312         0.27478        -2.07804
O          0.65855        -8.34448         2.18368
O          3.61216         2.93979        -2.31821
O          0.58926        -3.28377         0.41843
O         -1.82308        -4.48744         2.80240
O         -2.85647        -2.89729        -0.22424
O          6.52449        -3.73943         0.16910
O          5.33124         5.18268        -3.00590
O          3.13702        -3.10160         3.13238
O         -9.71575        -1.47379         0.45689
O          6.79904        -4.40808         2.40005
O          2.29606         0.30689        -1.19124
O          1.81495         0.27872         2.30541
O         -6.21159        -3.54954         1.55163
O          2.04502        -5.64913         3.02444
O          6.49624         2.63938        -2.87723
O         -6.70209         2.83776        -1.10424
O          6.22622        -8.05231         1.22547
O         -4.80662        -5.70375         1.30919
O          4.77388         4.75096         0.53632
O          5.25039         0.05042        -1.87187
O        -10.10431         1.03141         0.79115
O          4.85339        -5.76844         2.65563
O          2.73992        -1.99196        -0.33480
O          3.51643        -8.16717         2.04446
O         -3.89607         7.87290         1.68930
O          6.96975        -0.40825         1.50861
O         -6.42928        -2.87560        -2.01463
O         -2.26137         4.98301        -1.05111
O         -1.73183        -5.99594        -0.63736
O         -4.07188         4.90184         2.02384
O         -6.25212         5.23847        -1.77583
O          4.40729         8.32469         1.18761
O         -5.61798        -4.13982        -1.94779
O          1.04512         2.72505        -1.39131
O         -4.97449        -1.02395         2.38855
O          4.43516       -10.25226         0.72928
H          4.12450       -10.03214         1.63761
O         -4.04141        -9.70645         0.70192
H         -3.33278        -9.44131         1.37068
O          7.05585        -2.35317         3.37655
H          6.59170        -1.48653         3.42005
O         10.04705         2.03351         0.50769
H         10.09430         1.30996         1.17969
O          9.86965         2.05600        -3.13318
H          9.07581         1.49412        -3.29189
O         -1.29142         1.24954         3.38610
H         -1.02017         2.19610         3.45689
O         -6.36490        -8.32202         0.49099
H         -5.62901        -8.93057         0.78260
O         -0.31509        -6.29793         3.32637
H          0.30282        -7.01587         3.59195
O          0.32412        -1.52167         3.52032
H          0.32141        -0.61181         3.88881
O        -10.23929         3.42654        -2.05829
H         -9.35033         3.46492        -2.46977
O          0.10596       -10.85742         1.12365
H         -0.05351       -10.23322         1.87170
O          2.79978        11.24338        -0.23230
H          2.14061        11.87064         0.12523
O         -6.68769         8.17823        -1.94257
H         -6.68346         7.25632        -2.30094
O         -1.00423         9.83262        -1.91419
H         -1.58416         9.20295        -2.40259
H         12.06149        -1.37069        -0.86575
H         11.94704         0.95903        -1.62356
H         10.65739         3.25978        -1.65607
H          9.41470         5.24103        -1.69588
H          8.24266         7.34780        -1.43421
H          6.94833         9.63605        -1.59445
H          5.10775        10.90331        -0.60977
H          2.75492        10.19248         1.56798
H          0.28335        11.16121         0.01356
H         -2.48207        11.30064        -0.35461
H         -5.04129        11.24380         0.31694
H         -7.09334        10.10063         0.04268
H         -8.48024         7.82031         0.21788
H         -9.77338         5.66511        -0.08562
H        -11.01074         3.42876        -0.14503
H        -11.75433         1.34754        -2.02765
H        -11.64978        -1.07078        -2.30789
H        -10.48948        -3.32305        -1.98533
H         -9.33481        -5.44288        -1.65319
H         -8.11888        -7.50566        -1.58133
H         -6.53689        -9.38471        -2.43520
H         -4.39888       -10.60423        -2.22953
H         -2.05272       -10.76083        -1.39900
H          0.26473       -10.77250        -0.93779
H          2.50156       -10.58068        -1.13878
H          4.64780        -9.85869        -2.17492
H          6.76249        -8.60639        -2.12312
H          8.47212        -7.20720        -0.77843
H          9.87826        -5.35957         0.29507
H         10.93452        -3.39700         0.22905
