         600
 CSIRO Nanostructure Databank - Neutral Graphene Oxide Data Set
C         23.04493        27.44251         1.34980
C         23.05481        28.81853         1.29311
C         23.16197        31.71186         0.84175
C         23.15052        33.14239         0.83146
C         23.10592        36.05566         1.14384
C         23.08641        37.43318         0.98554
C         23.04718        40.33140         0.61950
C         23.01229        41.70042         0.39260
C         22.92345        44.60358        -0.04591
C         22.96742        45.87426         0.40798
C         25.42160        24.58901         1.07452
C         24.24996        25.29189         1.25653
C         25.48703        27.40774         1.02859
C         24.25423        26.71027         1.21432
C         25.49595        28.83328         1.06077
C         24.27515        29.53333         1.16509
C         25.55570        31.65865         1.61215
C         24.28133        30.98798         1.15170
C         25.55391        33.17617         1.40461
C         24.27978        33.87238         1.10390
C         25.50637        36.01416         0.69339
C         24.29941        35.32347         0.99835
C         25.47448        37.42520         0.48306
C         24.25450        38.14373         0.64157
C         25.41941        40.26238         0.05599
C         24.23086        39.58336         0.44024
C         25.36693        41.66371        -0.16263
C         24.17043        42.38481        -0.01174
C         25.44240        44.53959        -0.04767
C         24.15645        43.84516        -0.45394
C         25.44874        45.90122         0.36404
C         24.21537        46.58603         0.58719
C         25.44319        48.61589         1.12212
C         24.23927        47.93263         0.98306
C         27.99257        23.08018         0.85888
C         27.83939        24.47678         0.43537
C         26.64108        25.26085         0.80983
C         27.94353        27.39105         0.61626
C         26.68926        26.66920         0.79112
C         27.95502        28.80369         0.75769
C         26.76242        29.54940         0.96162
C         28.01739        31.68923         0.83132
C         26.79712        30.95943         1.07932
C         28.03089        33.11133         0.71741
C         26.81527        33.89550         1.01139
C         27.91381        35.95418         0.16006
C         26.74844        35.30201         0.55231
C         27.89365        37.38369        -0.06030
C         26.68166        38.11395         0.12354
C         27.87516        40.18899        -0.37935
C         26.66441        39.52491        -0.08908
C         27.88443        41.64423        -0.62543
C         26.59393        42.40261        -0.54615
C         27.89610        44.49220        -0.00800
C         26.64356        43.84742        -0.21234
C         27.89827        45.85194         0.37568
C         26.69232        46.57469         0.57095
C         27.91954        48.71948         0.98394
C         26.69137        47.98003         0.91451
C         27.99112        50.12592         1.09250
C         30.40069        23.09645         0.34566
C         29.18099        22.43425         0.75370
C         30.40742        24.49257         0.17616
C         29.13819        25.24124         0.15447
C         30.41603        27.37548         0.28052
C         29.15664        26.69246         0.37841
C         30.46122        28.78081         0.41151
C         29.26848        29.50958         0.96327
C         30.42753        31.65831         0.32630
C         29.22810        30.97520         0.62095
C         30.41947        33.07825         0.16694
C         29.20019        33.80177         0.33512
C         30.35055        35.88272        -0.28826
C         29.17730        35.22615         0.07437
C         30.30231        37.29241        -0.81949
C         29.08893        38.06875        -0.37851
C         30.35688        40.19662        -0.62642
C         29.09962        39.47734        -0.47098
C         30.37193        41.62750        -0.54275
C         29.15231        42.37072        -0.43458
C         30.39524        44.43207        -0.01856
C         29.14960        43.75256        -0.15417
C         30.43386        45.84093         0.25398
C         29.18047        46.50588         0.67417
C         30.44424        48.74532         0.73354
C         29.19805        47.99459         0.95742
C         30.44578        50.12650         0.85267
C         29.20268        50.79962         1.10027
C         32.88504        20.24129         0.23350
C         31.70520        20.94929         0.38607
C         32.79871        23.06245        -0.20112
C         31.62933        22.36158         0.19352
C         32.83039        24.48266        -0.24350
C         31.62275        25.21041        -0.02354
C         32.85549        27.34949        -0.13535
C         31.62565        26.64536         0.00296
C         32.87047        28.77962        -0.06983
C         31.66171        29.49315         0.17954
C         32.86484        31.63686        -0.06974
C         31.66256        30.93321         0.16405
C         32.86212        33.06628        -0.18252
C         31.63166        33.77969        -0.10653
C         32.82180        35.90099        -0.54112
C         31.60607        35.19266        -0.31684
C         32.81092        37.34236        -0.67875
C         31.60002        38.04940        -0.66906
C         32.83078        40.19255        -0.73840
C         31.58371        39.48044        -0.68922
C         32.84491        41.61789        -0.68948
C         31.60625        42.32603        -0.55328
C         32.83979        44.43195        -0.27592
C         31.62161        43.74555        -0.30780
C         32.88087        45.82183         0.15602
C         31.61668        46.54835         0.26105
C         32.95186        48.72840         0.35375
C         31.62383        48.04599         0.11407
C         32.94602        50.14212         0.53410
C         31.71711        50.85646         0.74854
C         32.99044        52.92993         0.89485
C         31.77305        52.23657         0.93711
C         35.37092        18.75262        -0.39914
C         35.31375        20.17153        -0.38629
C         34.06624        20.86056        -0.23636
C         35.34301        23.06253        -0.67767
C         33.98282        22.27927        -0.56143
C         35.30765        24.50331        -0.44389
C         34.07683        25.20223        -0.38250
C         35.32542        27.33605        -0.37607
C         34.08260        26.63023        -0.30902
C         35.33352        28.78896        -0.33547
C         34.10070        29.49730        -0.20011
C         35.32459        31.64128        -0.33027
C         34.10207        30.92248        -0.19819
C         35.32353        33.07290        -0.42026
C         34.08120        33.77575        -0.38250
C         35.29366        35.90321        -0.70001
C         34.06077        35.19764        -0.53456
C         35.26355        37.31707        -0.89142
C         34.06159        38.04128        -0.83535
C         35.27284        40.21842        -0.96313
C         34.06231        39.48864        -0.87609
C         35.29584        41.63472        -0.85817
C         34.07811        42.32403        -0.74253
C         35.36314        44.51426        -0.61099
C         34.05432        43.81813        -0.90236
C         35.40313        45.87275        -0.33439
C         34.18242        46.56926         0.13595
C         35.40814        48.74154         0.14961
C         34.15714        48.04988         0.16405
C         35.41544        50.12892         0.36329
C         34.19496        50.84094         0.54150
C         35.45725        53.00472         0.54436
C         34.20065        52.26818         0.68920
C         35.45719        54.42011         0.48243
C         37.81503        18.76976        -0.47861
C         36.57167        18.08030        -0.48707
C         37.80466        20.18424        -0.38427
C         36.55738        20.89785        -0.42712
C         37.77985        23.04206        -0.24006
C         36.56878        22.31355        -0.43002
C         37.77009        24.45756        -0.24978
C         36.54903        25.18792        -0.33591
C         37.80057        27.33001        -0.28735
C         36.54270        26.61941        -0.38278
C         37.82546        28.78558        -0.67313
C         36.54074        29.51266        -0.39389
C         37.80424        31.65133        -0.43755
C         36.55408        30.92707        -0.39106
C         37.80216        33.07681        -0.54139
C         36.54929        33.78566        -0.56406
C         37.78867        35.91890        -0.79954
C         36.53859        35.20366        -0.69612
C         37.80275        37.32003        -0.99514
C         36.52146        38.00093        -1.22404
C         37.80817        40.22085        -1.08917
C         36.52630        39.52112        -1.26505
C         37.79056        41.63995        -0.98667
C         36.56039        42.36088        -0.91205
C         37.81950        44.49200        -0.86572
C         36.57881        43.77631        -0.80526
C         37.83757        45.93262        -0.73444
C         36.63411        46.62107        -0.37654
C         37.87809        48.74731        -0.21970
C         36.64650        48.01772        -0.11966
C         37.91980        50.14608         0.02749
C         36.72467        50.82764         0.64246
C         37.88587        53.03346         0.20912
C         36.67491        52.31714         0.40379
C         37.87423        54.45845         0.21432
C         36.63529        55.12588         0.34587
C         40.32302        15.99799        -0.97957
C         39.12401        16.66003        -0.80598
C         40.29813        18.78937        -0.53210
C         39.07690        18.06283        -0.59266
C         40.29855        20.20086        -0.26365
C         39.03665        20.91202        -0.21570
C         40.21584        23.03960         0.31286
C         39.00451        22.30983        -0.07478
C         40.27888        24.49571         0.20011
C         39.07288        25.19713        -0.37533
C         40.17558        27.39460         0.38324
C         38.96635        26.65766        -0.04656
C         40.18319        28.85774         0.19502
C         39.05255        29.52415        -0.21293
C         40.25939        31.68486        -0.20302
C         39.03108        30.96140        -0.28959
C         40.27242        33.08734        -0.46247
C         39.02988        33.78272        -0.61982
C         40.24763        35.92919        -0.87697
C         39.03050        35.21739        -0.76179
C         40.25425        37.33952        -0.96857
C         39.01481        38.04998        -1.03453
C         40.26705        40.21013        -1.07680
C         39.01799        39.49842        -1.09076
C         40.27163        41.62418        -1.09179
C         39.03391        42.34732        -1.01675
C         40.26613        44.47448        -1.33365
C         39.01961        43.76324        -1.01382
C         40.25177        45.98114        -1.38289
C         39.03827        46.67363        -0.89188
C         40.32709        48.78729        -0.67401
C         39.07524        48.05865        -0.61349
C         40.32951        50.20886        -0.48325
C         39.11381        50.88870        -0.16012
C         40.31426        53.05256        -0.24151
C         39.11664        52.32242        -0.02649
C         40.31899        54.49709        -0.14047
C         39.11573        55.19552         0.09830
C         40.32398        57.31914         0.16618
C         39.14635        56.61548         0.24272
C         42.79283        16.04274        -1.17026
C         41.55056        16.70636        -0.95623
C         42.77765        18.83091        -0.70772
C         41.54195        18.11153        -0.72194
C         42.77229        20.23708        -0.43869
C         41.52980        20.88158        -0.15983
C         42.78865        23.06749         0.11909
C         41.56425        22.27812         0.28183
C         42.75389        24.47614         0.28232
C         41.47633        25.16151         0.34889
C         42.74734        27.36575         0.47063
C         41.47481        26.63202         0.56174
C         42.73891        28.82508         0.63859
C         41.40451        29.60768         0.52052
C         42.70414        31.70301         0.07912
C         41.47193        31.01716         0.11001
C         42.72125        33.10007        -0.25613
C         41.51493        33.76913        -0.52538
C         42.77808        35.93386        -0.82793
C         41.52374        35.15596        -1.11240
C         42.74997        37.34219        -0.94670
C         41.50422        38.06711        -1.00961
C         42.75587        40.20293        -1.05064
C         41.51073        39.47811        -1.06053
C         42.76422        41.61703        -1.03715
C         41.52673        42.34949        -1.10032
C         42.75993        44.49801        -1.00611
C         41.54086        43.74812        -1.18815
C         42.74859        45.89337        -0.91291
C         41.59010        46.71519        -1.43050
C         42.78975        48.81263        -0.82772
C         41.54230        48.11432        -0.87522
C         42.78871        50.24662        -0.82573
C         41.54205        50.94792        -0.65831
C         42.71867        53.13856        -0.89115
C         41.50938        52.36339        -0.57544
C         42.76954        54.56979        -0.55481
C         41.54760        55.23176        -0.25633
C         42.77858        57.35263        -0.18422
C         41.55125        56.64554        -0.08524
C         43.97591        16.74191        -1.16623
C         45.23774        18.89417        -0.92780
C         44.00549        18.15059        -0.93794
C         45.22790        20.30003        -0.67601
C         43.99448        20.97241        -0.42117
C         45.21604        23.13455        -0.21780
C         43.99619        22.39440        -0.18708
C         45.19675        24.55183        -0.02231
C         43.95961        25.22922         0.17728
C         45.18955        27.41160         0.21620
C         43.94201        26.68025         0.26370
C         45.18438        28.84456         0.25788
C         43.96952        29.57291         0.35652
C         45.18679        31.69310         0.13724
C         43.94717        30.98059         0.21753
C         45.19361        33.12585        -0.09869
C         43.98771        33.80468        -0.32794
C         45.24026        35.88813        -0.75446
C         44.00045        35.22008        -0.62518
C         45.21502        37.29159        -1.19485
C         43.97690        38.07153        -1.04017
C         45.25516        40.20115        -1.09920
C         43.99592        39.47474        -1.07764
C         45.24641        41.63754        -0.99156
C         44.00825        42.34404        -0.96403
C         45.23103        44.50153        -0.82321
C         43.99605        43.76141        -0.86737
C         45.23103        45.89460        -0.77745
C         43.97441        46.62961        -0.43304
C         45.25862        48.79539        -0.83172
C         44.00811        48.09801        -0.78404
C         45.25557        50.24482        -0.86428
C         44.03098        50.93272        -0.88390
C         45.28414        53.14090        -0.80369
C         44.03737        52.39652        -1.03882
C         45.25783        54.54933        -0.70803
C         43.98964        55.27211        -0.59744
C         43.96117        56.68464        -0.41248
C         47.66549        18.96572        -1.15218
C         46.48512        18.25870        -1.16942
C         47.68858        20.36386        -0.89795
C         46.45868        21.03685        -0.66845
C         47.67561        23.18100        -0.40722
C         46.45332        22.45367        -0.43602
C         47.66242        24.59696        -0.19270
C         46.43066        25.28455        -0.03399
C         47.65593        27.43962         0.14220
C         46.41744        26.71445         0.11232
C         47.65454        28.85161         0.25388
C         46.41658        29.56859         0.26432
C         47.64441        31.74844         0.61288
C         46.39399        30.98841         0.27315
C         47.66919        33.15092         0.07040
C         46.45865        33.82226        -0.19162
C         47.73343        35.90244        -0.62929
C         46.47999        35.21175        -0.55708
C         47.77070        37.32680        -0.90424
C         46.53220        38.05052        -1.28700
C         47.73716        40.24620        -1.14122
C         46.47288        39.51321        -1.17600
C         47.72238        41.67671        -0.82595
C         46.48617        42.36659        -0.87210
C         47.70553        44.49885        -0.57735
C         46.48244        43.78645        -0.79953
C         47.71778        45.93644        -0.59733
C         46.48849        46.62386        -1.14798
C         47.76997        48.82320        -1.14563
C         46.47422        48.10247        -0.89738
C         47.72914        50.28229        -0.78015
C         46.50785        50.97141        -0.80975
C         47.73017        53.12300        -0.59573
C         46.50282        52.41531        -0.71849
C         47.69240        54.54064        -0.56299
C         46.49865        55.22974        -0.60374
C         50.17797        20.45191        -1.05580
C         48.93039        21.09751        -0.85570
C         50.15605        23.21488        -0.51444
C         48.92077        22.49641        -0.59640
C         50.14525        24.62541        -0.25674
C         48.90415        25.31883        -0.13084
C         50.13391        27.44037         0.14955
C         48.89831        26.72857         0.05409
C         50.13567        28.86092         0.27791
C         48.90108        29.57847         0.29843
C         50.13839        31.69778         0.36511
C         48.91309        30.98403         0.35457
C         50.14723        33.12606         0.23931
C         48.91233        33.82354        -0.00090
C         50.21874        35.88077        -0.34355
C         48.94510        35.21486        -0.32280
C         50.23250        37.28732        -0.75493
C         48.95605        38.01538        -0.82753
C         50.15849        40.17009        -0.25976
C         49.03116        39.48163        -1.01266
C         50.18504        41.66179        -0.40909
C         48.94447        42.35989        -0.56277
C         50.11724        44.45424         0.04882
C         48.90205        43.77012        -0.39244
C         50.08897        45.98506         0.11557
C         48.88111        46.67985        -0.36725
C         50.15778        48.79654        -0.32715
C         48.96005        48.09016        -0.57013
C         50.18775        50.23929        -0.39869
C         48.96312        50.97212        -0.57446
C         50.21138        53.06279        -0.33527
C         48.97116        52.39389        -0.49947
C         51.36634        21.14514        -0.97508
C         52.64031        23.25041        -0.54913
C         51.39177        22.53408        -0.68964
C         52.62631        24.63469        -0.22719
C         51.37679        25.32942        -0.11808
C         52.60214        27.43695         0.31777
C         51.37047        26.73509         0.11133
C         52.59586        28.84692         0.49965
C         51.36623        29.56757         0.41897
C         52.59364        31.70975         0.66966
C         51.36860        30.98989         0.46370
C         52.58478        33.12992         0.60902
C         51.38731        33.82177         0.29012
C         52.68789        35.96045         0.00571
C         51.41761        35.24022        -0.00104
C         52.74375        37.33788        -0.25703
C         51.53157        38.06237        -0.65661
C         52.68646        40.21760        -0.30635
C         51.49153        39.51220        -0.45198
C         52.65850        41.64823        -0.23304
C         51.42072        42.34820        -0.25910
C         52.59603        44.51091         0.13554
C         51.41345        43.78066        -0.07689
C         52.57271        45.94740         0.26358
C         51.37560        46.68415         0.09389
C         52.61334        48.80028         0.14539
C         51.38043        48.09207        -0.02964
C         52.63593        50.21899         0.06484
C         51.40433        50.93864        -0.19246
C         51.38727        52.35968        -0.19912
C         55.08013        23.27866        -0.50796
C         53.89202        22.60370        -0.70657
C         55.09733        24.64205        -0.12521
C         53.85658        25.33259        -0.00279
C         55.05153        27.40302         0.66630
C         53.83756        26.72486         0.32850
C         55.04406        28.81816         0.90156
C         53.81497        29.55407         0.75676
C         55.04094        31.67296         1.20611
C         53.79186        30.96293         0.88870
C         55.06224        33.18036         1.23311
C         53.76132        33.96608         1.07952
C         55.14961        35.91984         0.25453
C         53.90501        35.28331         0.35150
C         55.21943        37.34756        -0.05823
C         53.96862        38.08078        -0.20870
C         55.19170        40.24524        -0.42610
C         53.93897        39.48395        -0.30663
C         55.18838        41.69333        -0.11910
C         53.92340        42.44382        -0.43741
C         55.02554        44.49222         0.52305
C         53.86420        43.82966         0.15251
C         54.99993        45.92590         0.71275
C         53.79927        46.64998         0.45974
C         55.03053        48.77719         0.69416
C         53.81235        48.07738         0.44313
C         55.02275        50.19187         0.58925
C         53.86872        50.88518         0.27751
C         57.60349        24.67946         0.09283
C         56.32872        25.32873         0.19495
C         57.49263        27.26314         1.19902
C         56.26939        26.65608         0.66707
C         57.49406        28.79908         1.44393
C         56.26344        29.53411         1.13077
C         57.54969        31.64997         1.23711
C         56.31319        30.93412         1.12616
C         57.57060        33.08071         1.09682
C         56.35351        33.84149         0.94253
C         57.67269        35.80518         0.26459
C         56.36595        35.16846         0.50310
C         57.71506        37.31596         0.00553
C         56.42897        38.03343        -0.08408
C         57.79923        40.25937        -0.13789
C         56.49443        39.48179        -0.36598
C         57.59322        41.64732         0.46054
C         56.34476        42.35184         0.29426
C         57.41998        44.42320         1.11104
C         56.29109        43.76972         0.64564
C         57.33175        45.83912         1.62836
C         56.17597        46.62632         1.06495
C         57.44858        48.70557         1.37961
C         56.21212        48.03649         1.06025
C         58.78313        25.31092         0.42106
C         59.96005        27.33546         1.25467
C         58.78697        26.62528         0.96260
C         59.95489        28.71671         1.49198
C         58.78303        29.49126         1.44043
C         59.99913        31.65440         1.44600
C         58.78081        30.92658         1.36646
C         60.02069        33.02265         1.32768
C         58.82744        33.76137         1.08937
C         60.06434        35.91672         0.88224
C         58.88415        35.15900         0.78932
C         60.07827        37.30114         0.74142
C         58.92055        38.05236         0.42994
C         59.93543        40.18010         1.16064
C         58.87547        39.45706         0.56501
C         59.89506        41.55207         1.29028
C         58.71787        42.30741         0.97549
C         59.83169        44.45702         1.56187
C         58.67578        43.73226         1.25278
C         59.82437        45.86634         1.66214
C         58.64244        46.58361         1.58174
C         58.61277        48.00985         1.59710
O         29.28910        46.98464         2.06357
O         51.02756        37.58269        -1.97186
O         26.36530        33.82265         2.44204
O         57.33162        27.83860         2.53128
O         48.66262        39.96715        -2.31332
O         49.91297        45.17645         1.32383
O         55.91998        39.85122        -1.67191
O         40.06749        45.21768        -2.62314
O         55.02855        32.44202         2.50209
O         27.14377        42.04677        -1.86381
O         34.57986        22.63400        -1.84374
O         45.89015        37.50756        -2.48906
O         57.88271        36.35831        -1.08630
O         33.73072        46.00604         1.43116
O         28.25842        24.77556        -0.93631
O         36.46742        38.72622        -2.50426
O         40.63508        26.98816         1.72450
O         42.01017        29.31728         1.81394
O         40.84394        22.52304         1.52942
O         43.28665        52.84590        -2.22155
O         37.93591        28.74792        -2.14977
H         37.05579        28.49869        -2.50436
O         39.38189        25.19582        -1.83762
H         38.62183        25.61698        -2.29528
O         47.98684        48.80338        -2.63704
H         47.35933        49.45140        -3.02592
O         29.46703        29.47533         2.44330
H         28.68135        29.90801         2.84387
O         58.37148        40.51745        -1.46126
H         57.61322        40.50693        -2.09440
O         53.38011        34.39115         2.43328
H         53.67178        33.66426         3.03461
O         43.88081        46.61838         1.06471
H         43.99188        45.68752         1.35610
O         31.39615        48.22961        -1.35120
H         31.48314        49.18925        -1.54109
O         41.92522        46.92892        -2.84279
H         41.48276        46.19673        -3.33891
O         57.02725        45.69718         3.07273
H         56.99313        46.60330         3.44739
O         46.59123        46.48435        -2.61663
H         47.23958        47.17453        -2.91706
O         53.97785        42.67768        -1.90389
H         54.85387        43.06964        -2.10733
O         25.60394        31.43601         3.05906
H         26.09222        32.20713         3.43419
O         30.12906        37.12723        -2.28376
H         30.10443        38.02615        -2.67652
O         33.86938        44.05079        -2.36327
H         33.10858        43.50209        -2.65281
O         47.59505        31.91347         2.08753
H         47.56251        31.01474         2.47987
O         24.14074        43.80997        -1.91797
H         24.94501        43.33059        -2.21438
O         49.79450        39.90160         1.16301
H         50.41916        40.40591         1.72778
O         41.55387        34.92502        -2.57864
H         41.60740        35.80390        -3.01213
O         36.91910        50.67985         2.10591
H         36.13587        51.07677         2.54388
H         22.10105        26.89722         1.49256
H         22.11103        29.37003         1.40157
H         22.23597        31.19589         0.55137
H         22.21789        33.64968         0.54923
H         22.17609        35.53426         1.40889
H         22.13365        37.96026         1.12266
H         22.11969        39.83389         0.93089
H         22.06434        42.23915         0.52335
H         21.94790        44.12801        -0.22232
H         22.03413        46.40945         0.64101
H         25.39627        23.49100         1.08259
H         23.30083        24.76027         1.41382
H         25.41543        49.67416         1.41484
H         23.29088        48.45785         1.16677
H         27.13361        22.55676         1.30187
H         27.06789        50.71557         1.18029
H         29.22945        21.38110         1.06148
H         29.18801        51.89060         1.22019
H         32.89017        19.16768         0.46800
H         30.81256        20.39781         0.70812
H         32.96517        54.01845         1.03223
H         30.85662        52.81284         1.11797
H         34.43732        18.17358        -0.38956
H         34.51586        54.97950         0.55427
H         36.55218        16.98392        -0.53987
H         36.58843        56.22198         0.32157
H         40.33347        14.91235        -1.15323
H         38.19337        16.07913        -0.84914
H         40.32808        58.41080         0.29658
H         38.21730        57.16562         0.44048
H         42.79332        14.95731        -1.34633
H         42.77666        58.44545        -0.06329
H         44.91145        16.19378        -1.33823
H         44.89100        57.26578        -0.46368
H         48.60065        18.42328        -1.34102
H         46.52441        17.18086        -1.37290
H         48.62443        55.11578        -0.48972
H         46.52713        56.32568        -0.55230
H         50.21636        19.37636        -1.27052
H         50.24896        54.15926        -0.30384
H         52.30360        20.59476        -1.12792
H         52.31954        52.92294        -0.06478
H         56.02166        22.72757        -0.63034
H         53.93555        21.54194        -0.98163
H         55.94675        50.76232         0.75183
H         53.92574        51.97920         0.20705
H         57.65398        23.65393        -0.29578
H         57.48095        49.80287         1.39237
H         59.74165        24.79129         0.27764
H         60.92667        26.81599         1.18126
H         60.92919        29.21154         1.60401
H         60.94731        31.12167         1.59302
H         60.98697        33.54103         1.36950
H         61.00489        35.42746         1.16805
H         61.02783        37.82365         0.91754
H         60.80787        39.64256         1.55714
H         60.75479        42.05500         1.75129
H         60.80119        43.94749         1.63650
H         60.78099        46.40091         1.76107
H         59.55684        48.55580         1.74440
