         424
 CSIRO Nanostructure Databank - Neutral Graphene Oxide Data Set
C          1.51013         3.40957         1.13437
C          0.36185         4.11423         1.44117
C          1.39966         6.22077         0.71613
C          0.30378         5.50190         1.24093
C          1.34202         7.66821         0.60357
C          0.32457         8.43749         1.16986
C          1.32219        10.56053         0.41851
C          0.27225         9.83032         1.01504
C          1.27349        11.99116         0.24919
C          0.09462        12.74155         0.51029
C          1.17073        14.83257        -0.18091
C          0.04120        14.10125         0.29974
C          1.11718        16.22706        -0.43321
C         -0.07646        16.99031        -0.25074
C          1.03633        19.15214        -0.78190
C         -0.15150        18.34127        -0.44566
C          1.08703        20.59070        -0.40577
C         -0.09099        21.31144        -0.21284
C          1.12645        23.42288        -0.11137
C         -0.07527        22.70451        -0.08202
C          1.14392        24.87692        -0.09660
C         -0.04325        25.62883        -0.19705
C          1.18617        27.73363        -0.10670
C         -0.02104        27.01755        -0.21857
C          1.21562        29.18573        -0.11087
C          0.05936        29.94097        -0.41262
C          1.24467        32.04300        -0.08037
C          0.07539        31.32516        -0.42362
C          1.26979        33.50783        -0.05211
C          0.10507        34.27053        -0.36126
C          1.32651        36.36768        -0.13699
C          0.12980        35.64851        -0.40564
C          1.38210        37.78965        -0.19252
C          3.76400         3.34724         0.19476
C          2.64227         4.08104         0.57162
C          3.75493         6.17129        -0.16032
C          2.58023         5.50590         0.34692
C          3.67949         7.61901        -0.50226
C          2.40019         8.38064        -0.12563
C          3.65917        10.52284        -0.38824
C          2.48065         9.84699        -0.03053
C          3.65628        11.95964        -0.42381
C          2.43599        12.68508        -0.20282
C          3.61029        14.80328        -0.65995
C          2.39628        14.09793        -0.38954
C          3.60396        16.22289        -0.79859
C          2.29150        16.87861        -1.14485
C          3.59146        19.12054        -0.74130
C          2.31743        18.41700        -1.05429
C          3.56789        20.54865        -0.49790
C          2.34384        21.27036        -0.37353
C          3.59261        23.40200        -0.08773
C          2.36343        22.69975        -0.18421
C          3.61300        24.83738         0.06085
C          2.38492        25.57257        -0.00482
C          3.64018        27.69316         0.22423
C          2.40320        27.00145         0.03068
C          3.66083        29.13176         0.35256
C          2.42394        29.87724         0.18571
C          3.60226        32.02307         0.68803
C          2.40360        31.29921         0.24364
C          3.68352        33.48219         0.53920
C          2.46260        34.20089         0.24660
C          3.70249        36.33175         0.49020
C          2.50056        35.63523         0.20875
C          3.74637        37.73644         0.39590
C          2.56123        38.45544         0.05566
C          6.15803         3.49476         0.40223
C          4.97639         3.95841        -0.41799
C          6.17332         6.18146        -0.74835
C          4.91621         5.47356        -0.42686
C          6.16526         7.67228        -1.08944
C          4.90911         8.40010        -0.65626
C          6.13283        10.53795        -0.79010
C          4.88987         9.78990        -0.65107
C          6.10801        11.95252        -0.77076
C          4.86196        12.66742        -0.65043
C          6.06712        14.82952        -0.75857
C          4.84487        14.09416        -0.69158
C          6.05159        16.24950        -0.73248
C          4.79609        16.95355        -0.77025
C          6.03537        19.09109        -0.22258
C          4.77160        18.40062        -0.67256
C          6.03565        20.57095        -0.47317
C          4.80586        21.26329        -0.40605
C          6.06283        23.36234        -0.11940
C          4.82632        22.68381        -0.20286
C          6.10273        24.73179         0.49682
C          4.83023        25.53007         0.25860
C          6.08282        27.64587         0.70633
C          4.83129        26.93632         0.38520
C          6.13179        29.10977         0.60239
C          4.88630        29.80252         0.53136
C          6.16189        31.99619         0.65273
C          4.91137        31.25007         0.79833
C          6.15102        33.40562         0.73209
C          4.89578        34.12784         0.73753
C          6.20851        36.30156         0.77999
C          4.90018        35.60249         1.04327
C          6.19904        37.71565         0.67810
C          4.99961        38.41311         0.56760
C          8.48529         3.73424         1.14175
C          7.32421         4.23548         0.50233
C          8.64083         6.35027        -0.01081
C          7.43496         5.52406        -0.23713
C          8.60649         7.76285        -0.36233
C          7.42609         8.41140        -0.69219
C          8.60462        10.58122        -0.83612
C          7.39232         9.85241        -0.80922
C          8.57982        12.00827        -0.85933
C          7.33183        12.69349        -0.81313
C          8.52628        14.85065        -0.70581
C          7.30749        14.12146        -0.77779
C          8.50439        16.26908        -0.67980
C          7.29063        16.96361        -0.71661
C          8.45503        19.13795        -0.87629
C          7.29729        18.41709        -0.67818
C          8.48404        20.57504        -0.79230
C          7.25136        21.27588        -0.58053
C          8.51136        23.41460        -0.57068
C          7.27034        22.70334        -0.43461
C          8.52292        24.85518        -0.32670
C          7.36831        25.47858         0.15763
C          8.62149        27.65968         0.29188
C          7.41970        26.87860         0.54808
C          8.61250        29.06283         0.51862
C          7.36249        29.78678         0.66535
C          8.60282        31.92565         0.60606
C          7.39800        31.24844         0.61287
C          8.66579        33.41264         0.36635
C          7.38062        34.14184         0.69235
C          8.69555        36.26493         0.76630
C          7.41416        35.55546         0.75847
C          8.73669        37.68054         0.73779
C          7.48374        38.50794         0.59582
C         10.91137         3.85148         1.57448
C          9.72481         4.42116         1.09044
C         10.97087         6.61678         0.85587
C          9.74930         5.78141         0.56656
C         11.03709         7.82731        -0.02778
C          9.86728         8.47974        -0.38604
C         11.07484        10.58133        -0.81080
C          9.87951         9.88202        -0.75829
C         11.09882        12.04991        -1.11223
C          9.79911        12.75851        -0.81873
C         11.01192        14.90108        -0.44098
C          9.76673        14.13846        -0.69427
C         11.04355        16.34960        -0.67860
C          9.75692        17.08567        -0.45022
C         10.99148        19.18332        -1.07636
C          9.71570        18.38509        -1.23439
C         10.93115        20.57314        -1.13554
C          9.69691        21.28513        -0.95776
C         10.95552        23.44956        -0.99815
C          9.70540        22.72875        -0.87135
C         10.91302        24.94923        -1.15527
C          9.73112        25.59996        -0.48483
C         11.01678        27.71660        -0.25509
C          9.78584        26.98287        -0.16248
C         11.04075        29.09274         0.10341
C          9.84370        29.76175         0.46915
C         11.12556        31.93189         0.64662
C          9.86395        31.18189         0.96300
C         11.14967        33.32406         0.73003
C          9.87122        34.05467         1.07775
C         11.13526        36.21960         0.73909
C          9.91597        35.54349         0.81131
C         11.17857        37.63800         0.80493
C          9.95910        38.34966         0.82318
C         13.38216         3.84942         1.83119
C         12.18915         4.49965         1.44746
C         13.50368         6.44134         0.69320
C         12.25169         5.82232         0.91980
C         13.57084         7.79356         0.16001
C         12.33382         8.38973        -0.36067
C         13.61019        10.62144        -0.49468
C         12.36370         9.88432        -0.78336
C         13.54620        12.07212        -0.49113
C         12.35367        12.72838        -0.60527
C         13.54308        14.99008        -0.46072
C         12.30914        14.18806        -0.38974
C         13.50281        16.34207        -0.61603
C         12.23301        17.04242        -0.79360
C         13.47340        19.18366        -1.09049
C         12.23686        18.48473        -0.99428
C         13.46073        20.61601        -1.29892
C         12.16078        21.32955        -1.54185
C         13.42567        23.47811        -1.16651
C         12.16514        22.78496        -1.15501
C         13.44299        24.90406        -0.99232
C         12.22860        25.63076        -0.87009
C         13.45072        27.75917        -0.61656
C         12.23690        27.03767        -0.59611
C         13.48983        29.14402        -0.28865
C         12.28911        29.80794         0.08871
C         13.56100        31.89660         0.41337
C         12.31826        31.20955         0.37498
C         13.58773        33.31179         0.55732
C         12.37833        34.01827         0.61467
C         13.66762        36.17258         0.81616
C         12.40003        35.49852         0.35947
C         13.64596        37.60349         0.98966
C         12.44691        38.30537         0.91657
C         15.85422         3.87273         2.12156
C         14.64102         4.48267         1.68431
C         15.99625         6.38490         0.80542
C         14.69122         5.76448         1.05807
C         16.03596         7.84511         0.36954
C         14.74894         8.52902         0.13473
C         15.93459        10.74060         0.45431
C         14.75619         9.95419        -0.09757
C         16.05550        12.13382        -0.08885
C         14.83620        12.85845        -0.58597
C         16.04944        14.99913        -0.29262
C         14.76961        14.26818         0.02068
C         16.02332        16.38066        -0.51767
C         14.74207        17.15135        -0.29723
C         15.93460        19.15821        -1.25992
C         14.72275        18.52245        -0.92292
C         15.87658        20.57116        -1.83350
C         14.63627        21.32408        -1.42372
C         15.89869        23.46254        -1.27669
C         14.65419        22.77233        -1.32451
C         15.91541        24.88218        -1.10383
C         14.70011        25.57553        -0.96602
C         15.95027        27.71541        -0.51240
C         14.69885        27.07415        -1.11785
C         15.98794        29.22243        -0.80038
C         14.73670        29.86611        -0.24376
C         16.06767        31.80676         0.64321
C         14.77596        31.17666         0.19366
C         16.04327        33.31019         0.69086
C         14.86635        34.01630         0.66674
C         16.12089        36.15016         1.08235
C         14.85615        35.46287         0.85612
C         16.08505        37.59135         1.29370
C         14.89951        38.27100         1.24689
C         18.30499         3.93755         2.54220
C         17.10100         4.53707         2.04365
C         18.40987         6.54862         1.42027
C         17.19083         5.82772         1.44962
C         18.46661         7.92594         0.98786
C         17.26779         8.62048         0.62434
C         18.48629        10.73981         0.48552
C         17.25708        10.00513         0.47170
C         18.49949        12.14748         0.20821
C         17.24362        12.83153        -0.05045
C         18.48819        14.96444        -0.45959
C         17.25515        14.26888        -0.30451
C         18.47089        16.35999        -0.77878
C         17.22066        17.06905        -0.82847
C         18.40368        19.08122        -1.67694
C         17.15810        18.44951        -1.21779
C         18.39589        20.64060        -1.87698
C         17.14729        21.36022        -1.63164
C         18.41121        23.46408        -1.43714
C         17.14999        22.73351        -1.42897
C         18.41677        24.88771        -1.28973
C         17.18703        25.61006        -1.10511
C         18.45334        27.72161        -0.87539
C         17.22344        26.99599        -0.90223
C         18.48504        29.14331        -0.59435
C         17.28390        29.85566        -0.34786
C         18.51917        31.93112         0.01366
C         17.30544        31.21412         0.00827
C         18.47643        33.44604         0.11102
C         17.35430        33.94405         1.06808
C         18.60707        36.12742         1.43500
C         17.30853        35.44877         1.09242
C         18.58835        37.61366         1.05214
C         17.36420        38.32856         1.64102
C         19.50496         4.60102         2.46362
C         20.81254         6.64349         1.91634
C         19.58806         5.92350         1.92940
C         20.86414         7.95307         1.48767
C         19.69143         8.64195         1.05463
C         20.92007        10.79232         0.64207
C         19.71259        10.04786         0.71627
C         20.92391        12.13700         0.32938
C         19.71726        12.85229         0.09590
C         20.91738        14.98622        -0.45889
C         19.72498        14.26570        -0.27976
C         20.90758        16.33381        -0.81725
C         19.70622        17.04685        -0.99191
C         20.85378        19.18155        -1.60385
C         19.69321        18.43815        -1.41127
C         20.84652        20.58439        -1.75629
C         19.67361        21.33453        -1.74528
C         20.85484        23.51198        -1.61525
C         19.64196        22.77375        -1.59299
C         20.86005        24.87880        -1.47437
C         19.65162        25.60174        -1.29361
C         20.89566        27.75909        -1.03444
C         19.67274        27.02790        -1.08591
C         20.92389        29.10598        -0.75574
C         19.72719        29.83787        -0.51849
C         20.95090        32.00559        -0.20220
C         19.73643        31.25810        -0.25646
C         20.97914        33.34335         0.17197
C         19.81008        34.08433         0.42785
C         21.02838        36.18059         0.91569
C         19.85236        35.44739         0.86036
C         21.04367        37.55528         1.33646
C         19.89272        38.26569         1.44548
O         12.47538         8.81218        -1.76388
O         16.24000         6.76434        -0.60395
O         18.32014        19.69953        -3.00702
O          1.55976        18.99717        -2.17508
O          4.12073        31.59292         1.99653
O         11.58597        14.51255         0.90123
O          6.79677        27.13679         1.87880
O          2.63703         7.88646        -1.49448
O          7.05069         5.42807        -1.66761
O         16.19291        31.45472         2.03995
O         11.22712        12.15314        -2.58292
H         11.83264        11.44124        -2.88284
O         15.80640        27.55857         0.92206
H         16.39985        28.19940         1.36906
O          6.14270         7.74927        -2.54918
H          6.71027         7.01401        -2.87563
O         15.02479        13.08413        -2.01870
H         15.16983        12.21523        -2.44836
O         15.72440        20.41009        -3.29150
H         16.58243        20.03099        -3.61080
O         12.06295        21.36823        -3.03443
H         12.98030        21.39057        -3.38775
O         15.58076        10.91679         1.88404
H         16.14002        11.64040         2.24037
O         18.48958        37.66304        -0.39438
H         18.56230        38.59794        -0.67718
O         14.67352        17.37163         1.15771
H         14.69591        16.48224         1.58042
O         10.79021         7.13862         2.23178
H         10.72309         6.35983         2.82538
O          9.84415        31.09992         2.45321
H          9.06745        30.55350         2.70476
O          4.74147        35.66820         2.52110
H          3.99269        35.07954         2.75848
O          6.03260        18.94288         1.25314
H          6.87785        19.31651         1.58394
O          9.64900        18.02583        -2.64262
H          9.72319        18.84930        -3.16938
O          6.15396        24.49197         1.94991
H          6.30714        25.37646         2.36663
O          2.09063        16.53998        -2.55526
H          1.59837        17.30193        -2.94747
O          9.67346        33.91885         2.50729
H          9.78358        32.96173         2.73825
O          5.10149         3.49303        -1.79764
H          5.89762         3.94349        -2.16741
O         17.49705        38.44399         3.06239
H         17.82426        37.57148         3.39391
O         18.08019        33.93604        -1.20686
H         18.75678        33.64715        -1.85464
O          7.46613        39.56929         1.56462
H          7.45528        39.16346         2.45586
O         14.64621        14.19578         1.46806
H         13.70068        14.03030         1.68201
O         17.71240        33.51804         2.41202
H         17.20411        32.65116         2.56516
O         10.68954        25.15789        -2.62458
H         11.03476        24.36566        -3.09111
O         18.73795        36.02846         2.88598
H         18.47815        35.09953         3.11791
O         14.70463        27.26087        -2.57890
H         13.86694        26.88472        -2.92522
O         12.43041        35.61491        -1.11947
H         13.27315        35.21494        -1.42421
O          8.89731        33.60722        -1.06867
H          8.15114        33.19594        -1.55296
O         16.00907        29.49793        -2.22870
H         15.40984        28.85474        -2.67998
O          9.76504        17.44110         0.96646
H          9.99821        16.63531         1.47571
H          1.56284         2.32396         1.29787
H         -0.51291         3.59193         1.85285
H         -0.62382         6.02926         1.49931
H         -0.48996         7.95231         1.72493
H         -0.59863        10.36064         1.42258
H         -0.81004        12.22860         0.86419
H         -0.90517        14.62192         0.49741
H         -0.99173        16.47435         0.07381
H         -1.11263        18.84633        -0.27762
H         -1.06219        20.79906        -0.21951
H         -1.03572        23.22656         0.01851
H         -1.01427        25.12284        -0.27724
H         -0.97638        27.55173        -0.30421
H         -0.87774        29.43015        -0.67011
H         -0.84774        31.85704        -0.68763
H         -0.84070        33.75749        -0.57981
H         -0.78423        36.20575        -0.65690
H          0.47057        38.34943        -0.44735
H          3.75451         2.25437         0.32566
H          2.60326        39.55247        -0.00561
H          6.08658         2.53500         0.93551
H          5.02480        39.51046         0.49673
H          8.44710         2.73588         1.60236
H          7.51520        39.01220        -0.41085
H         10.88240         2.83330         1.99049
H          9.96766        39.44871         0.86293
H         13.33214         2.84083         2.26683
H         12.45580        39.40076         1.02319
H         15.81187         2.86937         2.57017
H         14.88733        39.35863         1.41724
H         18.25443         2.93106         2.98205
H         17.31114        39.37214         1.22593
H         20.42293         4.12720         2.84134
H         21.72513         6.14992         2.28113
H         21.82606         8.48211         1.52115
H         21.88286        10.29176         0.81181
H         21.89004        12.65484         0.26250
H         21.88987        14.49287        -0.32852
H         21.87199        16.83807        -0.96433
H         21.83409        18.69522        -1.50774
H         21.82164        21.08943        -1.75371
H         21.81062        22.99160        -1.75648
H         21.82310        25.40372        -1.49989
H         21.85094        27.24665        -1.20639
H         21.89759        29.61245        -0.71680
H         21.90944        31.50538        -0.39517
H         21.96250        33.81866         0.29813
H         21.98594        35.73283         0.61158
H         22.01645        38.03249         1.52747
H         19.90577        39.32858         1.73038
