         651
 CSIRO Nanostructure Databank - Neutral Graphene Oxide Data Set
C          5.67166        31.66441         0.25561
C          5.88823        33.00225         0.45844
C          8.35826        27.31980        -0.11231
C          8.27870        28.73410         0.39982
C          6.97085        29.43131        -0.00098
C          8.59274        31.70643         0.80587
C          6.66672        30.63863         0.53717
C          8.45101        33.09590         0.56732
C          7.13294        33.74630         0.66255
C          8.30664        35.93045         0.63476
C          7.10078        35.12560         0.73057
C          8.34765        37.26568         0.91299
C         10.43598        22.86695        -0.18860
C         10.26228        24.23383         0.16812
C          9.47656        25.19766        -0.44240
C         10.80924        27.35376         0.11713
C          9.53919        26.62006        -0.08868
C         10.81204        28.77094        -0.07133
C          9.49407        29.51364        -0.18551
C         10.79963        31.66404        -0.12764
C          9.64208        30.95342         0.28504
C         10.79220        33.09355        -0.13849
C          9.56453        33.79207         0.11031
C         10.83378        35.85104         0.35836
C          9.47280        35.28703        -0.09520
C         10.85378        37.35330         0.43192
C          9.64795        38.03304         1.04888
C         10.76964        40.22919         0.52985
C          9.61806        39.52114         0.79532
C         10.82728        41.66599         0.53812
C         13.27092        18.80104         0.05372
C         13.16746        20.19167         0.22775
C         11.91015        20.82096        -0.12227
C         13.35424        23.18246         0.85090
C         11.47939        22.06560         0.33975
C         13.32418        24.60015         0.61032
C         12.15193        25.34469         0.72389
C         13.29732        27.41126         0.05201
C         12.06124        26.70944         0.30304
C         13.27231        28.80545        -0.29390
C         12.00200        29.48964        -0.28264
C         13.17420        31.64885        -0.73669
C         12.00188        30.94488        -0.43651
C         13.19196        33.08546        -0.73849
C         11.99442        33.78064        -0.45038
C         13.30412        35.89944        -0.27429
C         11.96364        35.28380        -0.53029
C         13.33418        37.20635         0.46687
C         12.03789        38.00625         0.34270
C         13.30234        40.24246         0.14422
C         12.02294        39.48556         0.21598
C         13.29375        41.71904         0.28695
C         12.01673        42.41414         0.42479
C         13.21346        44.60138         0.36926
C         12.03081        43.83531         0.52739
C         13.27804        46.00229         0.47901
C         15.77912        14.42610         0.07674
C         15.63029        15.81724         0.49474
C         14.49465        16.67029         0.13842
C         15.63140        18.81058         0.73553
C         14.45880        18.06440         0.32954
C         15.61270        20.20673         0.69825
C         14.38046        20.92960         0.53069
C         15.61833        23.04686        -0.13776
C         14.43371        22.37224         0.53189
C         15.69822        24.54248         0.09925
C         14.54317        25.28004         0.23452
C         15.74399        27.41359        -0.24566
C         14.52879        26.72053         0.05726
C         15.72088        28.81645        -0.56402
C         14.46186        29.48250        -0.62152
C         15.67062        31.65164        -1.06419
C         14.39121        30.87820        -1.18672
C         15.62791        33.07748        -1.31936
C         14.39814        33.83301        -1.02435
C         15.68317        36.03417        -0.88362
C         14.44053        35.23403        -0.69674
C         15.81080        37.38464        -0.31145
C         14.62070        38.01042         0.28928
C         15.82928        40.23178        -0.10201
C         14.60375        39.51779         0.27800
C         15.77823        41.69125         0.12900
C         14.46996        42.39882         0.13814
C         15.75462        44.63328        -0.03546
C         14.44029        43.86628        -0.00817
C         15.73211        46.03834         0.33796
C         14.51476        46.74025         0.47496
C         15.76116        48.90982         0.67137
C         14.56043        48.17189         0.60298
C         15.79640        50.32032         0.62377
C         18.24132        10.12546         0.30978
C         18.17926        11.50686         0.23144
C         16.98904        12.27934         0.16513
C         18.19504        14.42238         0.58580
C         16.97773        13.70860         0.29144
C         18.20308        15.83094         0.76840
C         16.90685        16.54280         0.95431
C         18.16370        18.80003         1.12599
C         16.86618        18.05535         1.07025
C         18.18159        20.31541         1.10714
C         16.83329        21.06487         1.04156
C         18.21881        23.04376         0.01331
C         16.93225        22.29625         0.11445
C         18.25261        24.53453        -0.00815
C         16.96953        25.27891         0.06314
C         18.20174        27.37770        -0.47809
C         16.97325        26.71387        -0.26990
C         18.18305        28.80707        -0.62684
C         16.95386        29.49449        -0.76026
C         18.06309        31.73711        -0.43539
C         16.99475        30.93809        -1.21778
C         18.21387        33.15825        -0.98569
C         16.99230        33.84547        -1.39784
C         18.22578        36.06074        -1.06530
C         16.96660        35.34390        -1.29376
C         18.23169        37.41972        -0.81613
C         16.99604        38.10438        -0.46021
C         18.29274        40.26314        -0.36988
C         17.02746        39.54869        -0.26238
C         18.30343        41.71396        -0.33739
C         17.05813        42.44353         0.01340
C         18.23571        44.60130         0.06388
C         17.04096        43.91753         0.00530
C         18.28293        46.01805         0.27508
C         17.01149        46.67790         0.64082
C         18.35427        48.86446         0.73291
C         17.03119        48.16268         0.87219
C         18.30887        50.35033         0.74140
C         17.00543        51.08166         0.73370
C         18.33290        53.16593         1.19892
C         17.04174        52.45642         0.84885
C         18.36252        54.65094         0.95708
C         20.86852         5.87153         0.13188
C         20.78548         7.28262         0.34273
C         19.57183         7.94795         0.36758
C         20.76282        10.03944        -0.16816
C         19.55681         9.43870         0.60032
C         20.75613        11.55784        -0.11834
C         19.45435        12.26789         0.09990
C         20.66002        14.43536         0.02157
C         19.50809        13.66803         0.67375
C         20.62692        15.90649         0.22362
C         19.40713        16.56153         0.77588
C         20.62547        18.79107         0.37853
C         19.37061        18.04159         0.66072
C         20.68173        20.26382         0.49542
C         19.48103        21.03655         0.85740
C         20.66596        23.10635         0.06873
C         19.50756        22.44731         0.40497
C         20.68207        24.50129        -0.35088
C         19.50309        25.23141        -0.39021
C         20.66555        27.40386        -0.61598
C         19.46430        26.67159        -0.53332
C         20.64562        28.82686        -0.52256
C         19.43289        29.51950        -0.54472
C         20.67110        31.76551        -0.40180
C         19.38775        30.99253        -0.32649
C         20.66276        33.19737        -0.75468
C         19.42887        33.85993        -0.93921
C         20.73476        36.03128        -1.01086
C         19.47521        35.30382        -1.41124
C         20.70691        37.45419        -0.84976
C         19.49993        38.14417        -0.75040
C         20.76640        40.29825        -0.61217
C         19.50442        39.57740        -0.54459
C         20.80435        41.78123        -0.35781
C         19.45494        42.42963        -0.55319
C         20.69487        44.65465        -0.64020
C         19.41542        43.89921        -0.50277
C         20.71610        45.86505         0.25711
C         19.49422        46.73480         0.19313
C         20.75372        48.90623        -0.09803
C         19.55975        48.15507         0.21235
C         20.78679        50.31744         0.13322
C         19.51574        51.06230         0.24008
C         20.83920        53.15545         0.74021
C         19.53354        52.53738         0.49155
C         20.81797        54.50958         1.30333
C         19.58743        55.32737         1.04156
C         21.10318        57.31408         0.61367
C         19.73928        56.68436         0.73785
C         21.06624        58.82337         0.68821
C         23.43896         3.21058        -0.44458
C         22.18402         3.82063        -0.22271
C         23.28743         5.83940         0.71368
C         22.08149         5.16609         0.18496
C         23.25437         7.32274         0.92125
C         22.02557         8.04559         0.54736
C         23.25282        10.18359         0.52594
C         22.03960         9.41282         0.38128
C         23.19527        11.63556         0.41638
C         22.02358        12.28246         0.14716
C         23.23817        14.51175         0.18146
C         22.00907        13.73605        -0.25820
C         23.22892        15.91578         0.07520
C         21.93874        16.60207         0.34947
C         23.11458        18.78401        -0.05479
C         21.93875        18.07740         0.47680
C         22.87424        20.05219        -0.46354
C         21.80223        20.88792         0.03872
C         23.24615        23.11976         0.07723
C         21.95528        22.36766         0.19261
C         23.23902        24.55977        -0.24291
C         21.96589        25.17258        -0.65299
C         23.25147        27.39989        -0.58366
C         21.95872        26.70325        -0.77017
C         23.23803        28.84698        -0.60997
C         21.94867        29.55521        -0.22987
C         23.14837        31.71897        -1.10515
C         21.89030        30.97735        -0.76061
C         23.13578        33.17906        -0.95046
C         21.91993        33.87666        -0.92267
C         23.20832        36.03168        -1.29003
C         21.92109        35.32431        -0.97258
C         23.23270        37.49090        -0.95056
C         21.98882        38.16068        -0.46361
C         23.21777        40.34046        -0.99289
C         21.97176        39.64028        -0.73829
C         23.16092        41.78983        -1.23361
C         22.00289        42.48081        -0.97996
C         23.18441        44.77665        -1.42534
C         21.93639        43.95438        -1.12830
C         23.23933        46.23036        -1.11038
C         22.10191        47.06526        -1.27406
C         23.22958        48.94470        -0.25242
C         21.99514        48.29987        -0.54140
C         23.22582        50.30321         0.13670
C         22.01392        51.02711         0.23243
C         23.27909        53.17135         0.72575
C         22.02224        52.45192         0.59913
C         23.35478        54.51756         1.05296
C         22.13844        55.20843         1.52830
C         23.44643        57.39889         1.60403
C         22.06308        56.73286         1.66939
C         23.46757        58.88411         1.34064
C         22.19390        59.55774         0.96288
C         23.49088        61.61619         0.62413
C         22.26394        60.97483         0.74622
C         24.62909         3.87666        -0.24438
C         25.84732         6.02228         0.36125
C         24.66203         5.16449         0.44448
C         25.83101         7.39415         0.57089
C         24.56784         8.10657         0.89798
C         25.73883        10.29793         0.53329
C         24.49885         9.55739         0.64791
C         25.73298        11.69209         0.52740
C         24.43695        12.40385         0.82114
C         25.66290        14.56556         0.45394
C         24.45152        13.84136         0.38049
C         25.64839        15.97523         0.31555
C         24.43796        16.65165         0.09946
C         25.58369        18.90252         0.47477
C         24.46174        18.11940        -0.29945
C         25.78131        20.36519         0.10256
C         24.76862        21.17296        -0.41336
C         25.69284        23.20625         0.49582
C         24.58858        22.49884        -0.03359
C         25.65841        24.64835         0.33395
C         24.42814        25.26570        -0.19659
C         25.75013        27.36726        -0.59492
C         24.44114        26.67929        -0.50048
C         25.71953        28.86049        -0.65730
C         24.41010        29.55857        -0.66812
C         25.69819        31.77422        -0.78748
C         24.47526        30.98121        -1.19792
C         25.70344        33.13955        -0.74799
C         24.41445        33.86552        -0.69109
C         25.71458        36.05902        -1.01937
C         24.44136        35.35614        -0.75320
C         25.67531        37.44477        -1.23753
C         24.41565        38.18117        -1.06674
C         25.62876        40.33486        -1.66853
C         24.40905        39.62924        -1.10801
C         25.68187        41.77111        -1.19579
C         24.43756        42.51084        -1.52616
C         25.67014        44.64268        -0.82420
C         24.48224        44.02308        -1.45461
C         25.65311        46.02062        -0.46285
C         24.43983        46.79410        -0.59447
C         25.71224        48.83201        -0.13054
C         24.46760        48.19228        -0.33021
C         25.71622        50.32889        -0.30453
C         24.54037        50.95987         0.46875
C         25.80178        53.17675         0.23417
C         24.48860        52.46027         0.25984
C         25.82452        54.57655         0.67946
C         24.61678        55.25046         0.98267
C         25.89662        57.35056         1.12985
C         24.66353        56.64035         1.25991
C         25.91506        58.78055         1.02710
C         24.74313        59.53318         0.96422
C         24.71052        60.91842         0.67770
C         27.00598         8.17223         0.38888
C         28.19728        10.32590         0.32498
C         27.00006         9.58611         0.42539
C         28.20916        11.74373         0.35800
C         26.94905        12.44517         0.47057
C         28.16412        14.59716         0.46755
C         26.93756        13.86000         0.51881
C         28.16938        16.01307         0.53504
C         26.87071        16.72052         0.80113
C         28.08627        18.89531         0.65221
C         26.90280        18.18675         0.48216
C         28.08172        20.31188         0.87551
C         26.90011        21.05650         0.65981
C         27.99325        23.19804         1.40386
C         26.86312        22.48104         0.80757
C         27.98278        24.72568         1.15346
C         26.83332        25.34951         0.48431
C         28.14243        27.52692         0.37077
C         27.05855        26.64557        -0.25071
C         28.13637        28.90589         0.20317
C         26.83637        29.65576        -0.00555
C         28.22041        31.80214        -0.51183
C         26.96690        31.01630        -0.67918
C         28.18309        33.27630        -0.58873
C         26.94649        33.91666        -0.72282
C         28.17249        35.99692        -1.24807
C         26.93568        35.33281        -0.95482
C         28.02697        37.32343        -1.77236
C         26.88246        38.10429        -1.59883
C         28.21889        40.27899        -1.04454
C         26.96691        39.58902        -1.60161
C         27.91923        41.50695        -0.18762
C         26.79293        42.39679        -0.71054
C         27.87729        44.45758         0.19911
C         26.77785        43.84622        -0.47010
C         28.02213        45.87959         0.29424
C         26.86108        46.65834        -0.02990
C         28.15569        48.78519         0.18624
C         26.89452        48.09604         0.02775
C         28.21834        50.20506         0.14999
C         27.02121        51.00348         0.05513
C         28.29176        53.10732         0.39329
C         27.05486        52.38063         0.23117
C         28.29595        54.46143         0.62168
C         27.07998        55.23277         0.78610
C         27.10191        56.62008         0.98109
C         29.41180        12.48146         0.28955
C         30.62354        14.64769         0.28752
C         29.42203        13.89732         0.34447
C         30.62593        16.05726         0.36400
C         29.36941        16.74917         0.50696
C         30.55580        18.91107         0.57046
C         29.36902        18.18848         0.61403
C         30.54002        20.43571         0.58798
C         29.34104        20.91879         1.44610
C         30.56227        23.26740         1.73803
C         29.28142        22.45045         1.67161
C         30.43841        24.76654         1.59259
C         29.26862        25.45518         1.18492
C         30.47344        27.65999         1.38066
C         29.28198        26.85042         0.91503
C         30.59790        29.07027         0.87819
C         29.30271        29.74038         0.60628
C         30.62785        31.92638         0.19873
C         29.34465        31.19729         0.25037
C         30.65309        33.25266        -0.19733
C         29.42366        33.99141        -0.56996
C         30.76116        35.99675        -1.28511
C         29.42327        35.35014        -0.95132
C         30.99687        37.55281        -1.13166
C         29.86951        38.45721        -1.44403
C         30.45102        40.09138         0.32266
C         29.48094        39.53717        -0.69526
C         30.34783        41.53079         0.79984
C         29.13253        42.27686         0.30048
C         30.66833        44.58832         1.18344
C         28.83965        43.53509         0.76154
C         30.55242        45.93352         0.74790
C         29.29070        46.58822         0.53560
C         30.60863        48.69996         0.37065
C         29.34238        48.00709         0.36297
C         30.63917        50.12704         0.31979
C         29.48306        50.87054         0.24835
C         29.59121        52.37634         0.15176
C         31.82268        16.82856         0.30187
C         33.01760        18.99697         0.25589
C         31.80903        18.22919         0.39830
C         33.10617        20.38464         0.37271
C         31.87735        21.05101         1.07411
C         32.77751        23.33397         0.58351
C         31.76358        22.58751         1.14944
C         33.35977        24.53204         1.08198
C         31.59983        25.57626         1.73939
C         33.07371        27.52690         1.32667
C         31.73652        26.86063         1.25426
C         33.06226        29.04180         1.31522
C         31.77799        29.75328         0.97931
C         33.11500        31.99708         0.84820
C         31.80461        31.24060         0.80061
C         33.12890        33.33769         0.21080
C         31.92369        33.96498        -0.19790
C         33.14765        36.03909        -0.52705
C         31.95018        35.31908        -0.61283
C         33.07586        37.51992        -0.74013
C         31.86585        38.09271        -0.03564
C         33.02962        40.07406         0.77601
C         31.77387        39.39411         0.35371
C         32.99480        41.54280         1.10754
C         31.66403        42.27841         1.17409
C         33.00465        44.43921         0.71023
C         31.76683        43.76856         0.98563
C         33.00947        45.83136         0.55062
C         31.81000        46.59308         0.52919
C         31.81655        47.99176         0.36781
C         34.40645        20.95978         0.14717
C         35.64655        23.21926        -0.18944
C         34.57860        22.31708        -0.20443
C         35.49927        24.66757        -0.14064
C         34.36042        25.30519         0.51076
C         35.49503        27.59163         0.29492
C         34.27820        26.80108         0.68394
C         35.63268        29.00767         0.79407
C         34.40556        29.77886         1.19959
C         35.65421        31.92844         0.47181
C         34.46398        31.33278         1.21912
C         35.62890        33.30682         0.18423
C         34.36584        34.01079         0.06154
C         35.60500        36.13353        -0.32572
C         34.36633        35.38771        -0.26317
C         35.60857        37.51584        -0.44226
C         34.36129        38.32879        -0.71582
C         35.57165        40.29362         0.24224
C         34.32406        39.47556         0.29534
C         35.48458        41.64578         0.52184
C         34.24495        42.31282         0.79597
C         34.22066        43.68587         0.66131
C         36.62966        25.44908        -0.40459
C         37.88978        27.52919        -0.41578
C         36.71751        26.85663        -0.15695
C         38.07956        28.95907        -0.11516
C         36.90931        29.73759         0.47235
C         38.05899        31.83951        -0.09891
C         36.87568        31.19800         0.28493
C         38.16380        33.32467         0.12390
C         36.84118        34.02494        -0.07090
C         38.08054        36.13965        -0.46071
C         36.84385        35.40906        -0.26049
C         38.06635        37.52648        -0.46314
C         36.83745        38.25386        -0.34156
C         36.78757        39.63977        -0.09604
C         39.12790        29.73270        -0.77691
C         40.33589        31.84917        -1.11410
C         39.18354        31.10588        -0.62532
C         40.39357        33.20747        -1.08783
C         39.29189        34.00812        -0.61048
C         39.27448        35.37078        -0.74381
O         33.33692        22.85596        -0.60131
O         23.90508         7.73588         2.15727
O         28.95889        30.78263         1.61885
O         19.72974        44.65582        -1.74250
O         21.44225        54.55552         2.63366
O         12.60294        39.86597        -1.10217
O         21.54488        45.97431         1.15042
O         29.07211        37.94964        -2.47508
O         32.33648        41.82765         2.38347
O         17.53231        18.36459         2.35665
O         22.22608        31.18848        -2.15654
O         29.95972        40.41486         1.67720
O         25.96805        28.10034        -1.86971
O         15.01045        44.31687        -1.28624
O         18.62987        49.63706         1.97440
O         20.31380        15.29824        -1.10000
O         32.25812        37.71780        -2.00979
O         17.77453        25.01440         1.31091
O         35.30919        29.20716         2.19484
O         20.00871        12.15271        -1.24876
O         37.99213        29.27796         1.33513
O         27.62749        24.12810         2.45094
O          7.57143        31.09523         1.53834
O         27.91289        31.11489        -1.78486
O         19.74604        18.41168        -0.74702
O         21.98850        25.83088        -1.95743
O         32.23348        31.95479         2.02469
O         17.01666        47.26054         2.01440
O         34.40604        27.42381        -0.67507
O         24.32686        34.72543         0.54184
O         12.22025        22.60329         1.42338
O         16.56543        42.00295         1.36302
O         29.57360        44.03002         1.83433
O         22.67196        22.77188         1.41980
O         24.98922        52.98076        -1.01727
O         16.04314        15.95619         1.93326
O         23.81176        20.66577        -1.29970
O         20.09517        31.40902         0.91743
O         23.97344         5.12946         1.75390
O         22.06247        17.26233         1.68084
O         19.27459        52.02215        -0.84686
O         17.69757        22.22539        -1.13014
O         33.85642        39.21009         1.64174
O         29.91751        22.75918         2.94926
O         18.98944        20.81147         2.23018
O         32.77042        25.00700         2.25142
O         22.27421        44.41272        -2.50267
O         33.10588        28.27659         2.58580
O         16.34625        33.39549        -2.63277
O         23.58495        58.34844         2.70860
O         24.63570        43.32320        -2.73020
O         11.02823        24.72660         1.25716
O         16.11835        35.98896        -2.29682
O         27.92148        40.29117        -2.46671
O         14.84957        38.77574         1.53106
O         25.14131        18.95877         1.86710
H         25.54879        18.19412         2.34561
O         26.70186        16.69837         2.28823
H         26.58033        15.76045         2.55563
O         17.54126        31.90653         0.90634
H         18.31954        32.04715         1.49459
O         19.84378         9.67863         2.01500
H         19.10565         9.31187         2.54494
O         26.33133        29.93040         1.33499
H         27.08339        30.30155         1.85983
O         30.88527        35.71835        -2.70141
H         31.60962        36.29126        -3.04622
O         27.35072        40.92772         1.03915
H         28.11095        40.62144         1.59787
O         21.66306        56.94745        -0.69185
H         21.04167        57.24883        -1.38751
O         19.53728        35.27210        -2.88072
H         18.65073        35.01383        -3.21504
O         15.31477        22.92793        -1.56527
H         16.17449        22.77200        -2.02653
O         21.03471        41.93498         1.09907
H         20.27152        41.53613         1.57048
O         24.37295        12.48094         2.29424
H         24.31798        11.56146         2.63371
O          9.20350        29.62577        -1.61223
H          9.96623        30.06734        -2.04277
O         38.48812        33.48021         1.55436
H         37.82017        32.97234         2.06477
O         22.06391        38.05298         1.00962
H         21.39056        38.65904         1.38671
O         19.85851        13.51294         2.07879
H         19.61201        14.33279         2.55702
O         32.11271        20.67279         2.44815
H         31.24809        20.69453         2.93183
O         20.67570         9.63953        -1.54985
H         20.30663        10.40826        -2.04507
O         25.33433        40.41626        -3.09570
H         26.14504        40.75807        -3.53509
O         34.54206        38.96082        -2.00906
H         33.79127        38.69437        -2.58539
O         25.50463        50.50808        -1.72808
H         25.40081        51.48040        -1.88903
O         23.33551        35.92450        -2.74772
H         22.49679        36.23047        -3.15507
O         11.69353        35.64258        -1.93938
H         12.46134        35.33863        -2.46994
O         14.22132        30.68103        -2.65200
H         14.40514        31.54104        -3.08865
O         21.13409        46.77477        -2.15522
H         21.34354        45.91229        -2.61149
O         11.02005        35.35568         1.71121
H         11.89910        35.69658         2.02312
O         16.55870        21.62170         2.34365
H         17.39070        21.57410         2.87211
O          9.15746        35.56029        -1.47701
H          9.97264        35.44839        -2.02236
O         30.28256        27.83725         2.83451
H         31.15482        28.12496         3.19874
O         24.77182        18.13286        -1.70747
H         24.56468        19.03338        -2.04951
O         24.72724        30.76378        -2.61947
H         23.86035        30.54994        -3.03616
O         13.34846        36.77752         1.88326
H         13.73105        37.52947         2.39800
O         30.62776        52.86788         1.00886
H         30.38856        52.65307         1.93351
O         27.65233        26.21363        -1.51544
H         27.39634        26.89395        -2.18452
O         21.44902        57.05581         2.91978
H         22.00616        56.70276         3.64343
O         34.72702        31.72437         2.58387
H         33.89288        31.59466         3.08994
O         30.28904        20.91845        -0.75113
H         31.04006        20.65052        -1.32174
O          8.40938        28.63356         1.82964
H          8.15500        29.50786         2.21073
O         18.58462        52.93137         2.61987
H         17.91553        53.42524         3.13758
O          9.92685        37.90635         2.50030
H         10.11678        36.94896         2.65497
O         22.17846        13.68533        -1.70488
H         21.53221        14.32234        -2.09400
O         17.38792        30.89892        -2.61592
H         17.12338        31.76491        -3.01629
O         29.49847        20.30163         2.75325
H         28.92100        20.77533         3.38958
O         24.80797        50.74168         1.88119
H         23.98337        50.90557         2.38542
O         22.05220        29.63400         1.21936
H         21.28517        30.16981         1.54238
H          4.67669        31.34795        -0.09462
H          5.01450        33.65639         0.29485
H          7.42495        26.78858        -0.35719
H          6.35805        29.00089        -0.80556
H          6.13366        35.64179         0.84450
H          7.45555        37.75220         1.34191
H          9.84189        22.46826        -1.02328
H          8.68566        24.88884        -1.14288
H          8.68818        40.06687         1.02094
H          9.88486        42.21168         0.70167
H         12.37889        18.24195        -0.26536
H         11.25372        20.26493        -0.80930
H         11.08186        44.35818         0.72114
H         12.34824        46.55881         0.67079
H         14.91294        13.91089        -0.36431
H         13.61832        16.18875        -0.32211
H         13.60864        48.72343         0.57254
H         14.84361        50.86742         0.55473
H         17.31038         9.53754         0.36129
H         16.02253        11.75853         0.08556
H         16.09937        53.02684         0.86421
H         17.44865        55.19566         0.67426
H         19.94735         5.32248        -0.11646
H         18.63024         7.38596         0.26403
H         18.84927        57.28256         0.48594
H         20.15022        59.34369         0.36359
H         23.45718         2.20917        -0.89814
H         21.27074         3.28693        -0.52210
H         23.50907        62.69576         0.41718
H         21.33246        61.53658         0.58422
H         25.57245         3.45114        -0.61633
H         26.78229         5.55773         0.01019
H         26.88350        59.27590         0.85889
H         25.65264        61.45339         0.49002
H         27.95873         7.64995         0.21296
H         29.15237         9.78569         0.24054
H         29.25996        54.98523         0.70156
H         28.06002        57.15962         0.96027
H         30.36669        11.94165         0.20052
H         31.58101        14.11379         0.19051
H         31.61226        50.63831         0.35167
H         29.91826        52.62030        -0.89991
H         32.78462        16.30881         0.17651
H         33.92231        18.44427        -0.04584
H         33.96881        46.35197         0.41934
H         32.76910        48.53130         0.26732
H         35.27299        20.27951         0.17243
H         36.67292        22.82567        -0.12560
H         36.38383        42.27322         0.42260
H         35.15696        44.21759         0.43570
H         37.53738        24.94874        -0.77482
H         38.74545        26.97350        -0.82895
H         39.01170        38.08371        -0.54248
H         37.72433        40.21631        -0.05944
H         39.91170        29.20367        -1.33914
H         41.17976        31.27082        -1.51804
H         41.27601        33.72823        -1.48955
H         40.14357        35.89380        -1.17247
