         480
 CSIRO Nanostructure Databank - Neutral Graphene Oxide Data Set
C         40.42844        50.89828        -6.00715
C         39.81372        51.61934        -6.99965
C         41.33540        53.47899        -6.67287
C         40.28779        52.91585        -7.35344
C         41.96318        49.31835        -4.03060
C         42.32723        50.62963        -4.41723
C         41.56278        51.42054        -5.30320
C         42.91962        53.42076        -4.76431
C         41.97646        52.78761        -5.58781
C         43.53619        54.66932        -5.10447
C         43.79916        49.06912        -2.40280
C         42.63849        48.58278        -3.07247
C         44.40963        50.32359        -2.94143
C         43.63214        51.23668        -3.91670
C         44.43036        53.39929        -2.71827
C         43.31089        52.70587        -3.46954
C         44.46499        54.90428        -2.81375
C         44.35337        55.34429        -4.25115
C         44.87285        46.30555        -0.12006
C         44.10178        47.02598        -0.98138
C         45.31745        49.11042        -0.40109
C         44.38616        48.39938        -1.31729
C         45.73217        50.49333        -0.77604
C         44.65278        51.38059        -1.33056
C         46.21267        53.36391        -0.99421
C         45.13766        52.73383        -1.76384
C         46.42203        54.78222        -1.17114
C         45.61562        55.53137        -2.05811
C         46.79765        57.56206        -1.42212
C         45.81174        56.91508        -2.16276
C         47.37567        44.62609         0.30727
C         47.31765        46.03251         0.75844
C         46.06123        46.85694         0.55939
C         47.49333        48.97117         0.99481
C         46.21941        48.34663         0.53151
C         47.62012        50.37689         0.92461
C         46.86402        51.16072        -0.04564
C         48.06150        53.25980         0.65794
C         47.00899        52.62865        -0.11261
C         48.25592        54.67758         0.48459
C         47.44869        55.43239        -0.41407
C         48.67308        57.50932         0.21998
C         47.62777        56.84904        -0.53809
C         48.74462        58.94709         0.31136
C         49.86250        44.72342         0.08267
C         48.53616        44.00912         0.04637
C         49.78975        46.05774         0.79544
C         48.61362        46.73952         0.95530
C         49.86533        48.78574         1.61744
C         48.61317        48.15689         1.32779
C         49.88367        50.17585         2.06943
C         48.64252        51.07424         1.68721
C         49.84445        53.16635         2.52111
C         48.86549        52.51740         1.54196
C         50.04753        54.63421         2.18937
C         49.29034        55.33287         1.22377
C         50.72402        57.36468         1.59735
C         49.53210        56.73467         1.01095
C         50.85017        58.90418         1.58041
C         49.68903        59.60504         1.04746
C         52.17086        41.73262         0.71356
C         51.00258        42.48021         0.53342
C         52.28182        44.52827         0.74302
C         51.03695        43.87394         0.53649
C         52.32728        45.96156         0.87538
C         51.06571        46.61675         1.37364
C         52.33408        48.81415         1.47956
C         51.09516        48.11929         1.44443
C         52.42628        50.16110         1.85041
C         51.19856        50.84367         2.33620
C         52.56251        52.96885         2.56443
C         51.21486        52.31783         2.63999
C         52.73006        54.20258         3.17905
C         50.95595        55.39603         2.97036
C         52.57710        57.25311         3.45655
C         51.42357        56.65566         2.66135
C         52.82247        58.72453         3.14376
C         51.85435        59.52735         2.49029
C         53.08960        61.52135         3.12603
C         51.99782        60.92494         2.50712
C         54.68437        40.19256         0.95399
C         54.64919        41.57782         0.96614
C         53.42620        42.35202         0.81749
C         54.74373        44.48679         0.82578
C         53.48689        43.78026         0.81078
C         54.76435        45.91263         0.76017
C         53.52302        46.64469         0.84190
C         54.85501        48.68520         1.39828
C         53.53368        48.16450         0.80927
C         54.89031        50.19411         1.51963
C         53.68443        50.88044         1.78505
C         54.97652        52.98749         2.11070
C         53.72833        52.28555         2.10076
C         55.00724        54.37348         2.45121
C         53.86670        55.02803         2.97143
C         55.08473        57.10891         3.40979
C         53.86862        56.44670         3.27044
C         55.14715        58.45814         4.11102
C         53.99779        59.32435         3.63485
C         55.36604        61.33665         4.13233
C         54.12844        60.72792         3.64805
C         55.43292        62.68977         4.46705
C         57.13743        40.06423         0.84849
C         55.89456        39.45401         0.90663
C         57.22079        41.51303         1.07140
C         55.90661        42.31122         1.15657
C         57.20693        44.41285         0.77970
C         55.96236        43.76024         0.89234
C         57.20641        45.83548         0.68413
C         56.02240        46.57834         0.72795
C         57.37283        48.71207         1.10708
C         56.06448        48.09787         0.64209
C         57.39099        50.12167         1.47579
C         56.14925        50.84713         1.62035
C         57.46056        52.87311         2.09499
C         56.20261        52.25240         1.88645
C         57.54439        54.32721         2.25163
C         56.25191        55.14352         2.40668
C         57.53148        56.97610         3.53107
C         56.29743        56.44537         3.09986
C         57.69831        58.36362         3.95618
C         56.51842        59.13771         4.02854
C         57.81564        61.20772         4.44292
C         56.55918        60.55511         4.19803
C         57.88506        62.65045         4.52863
C         56.66777        63.32925         4.63814
C         59.57939        37.21385         0.74774
C         58.41856        37.92225         0.81326
C         59.55548        40.05095         0.32936
C         58.37119        39.34428         0.58647
C         59.62312        41.48899         0.42996
C         58.45000        42.23620         0.71730
C         59.70969        44.30437         0.56562
C         58.45815        43.65220         0.69731
C         59.77360        45.78470         0.51423
C         58.48747        46.56224         0.55258
C         59.85074        48.62529         1.01262
C         58.52555        47.98239         0.96459
C         59.88618        50.08224         1.42118
C         58.61676        50.76484         1.73783
C         59.92597        52.78763         2.46443
C         58.66909        52.13524         2.14541
C         59.97077        54.12022         2.89346
C         58.73326        54.85572         2.92653
C         60.51258        57.05928         3.90881
C         58.60235        56.05090         3.61665
C         60.33634        58.46252         3.91126
C         59.00743        59.00500         4.17216
C         60.77209        61.48443         4.12156
C         58.93133        60.35454         4.59080
C         60.50786        62.91431         3.94667
C         59.10524        63.49341         4.25967
C         59.85619        65.50658         2.99065
C         58.87434        64.80269         3.60656
C         62.18422        35.67494         0.43814
C         62.10893        37.14124         0.38413
C         60.77938        37.80117         0.15651
C         62.06251        40.05552        -0.14195
C         60.77417        39.32718        -0.05898
C         62.09575        41.41839        -0.00556
C         60.87001        42.15543         0.28093
C         62.19822        44.22547         0.60291
C         60.90650        43.56584         0.44104
C         62.19920        45.60114         1.15974
C         61.01605        46.44045         0.98095
C         62.32432        48.50341         1.38248
C         61.07274        47.80854         1.19237
C         62.34533        49.92171         1.68819
C         61.16285        50.62741         1.90326
C         62.52878        52.70023         2.44023
C         61.17734        51.98508         2.44383
C         62.50699        54.19023         2.36169
C         61.26253        54.91189         2.80330
C         62.80396        57.00955         3.07928
C         61.45860        56.32871         3.20292
C         62.70896        58.50353         2.88151
C         61.68172        59.23855         3.75275
C         62.44971        61.31642         2.30267
C         61.54527        60.69706         3.34775
C         62.45415        62.84667         2.37080
C         61.38986        63.59235         2.99800
C         62.12537        65.68439         1.94390
C         61.16583        64.96064         2.68452
C         61.96446        67.05810         1.57976
C         64.63119        35.71522         0.18667
C         63.37703        35.02930         0.38510
C         64.64013        37.11553        -0.07645
C         63.36850        37.88634         0.04775
C         64.59388        40.00862        -0.24756
C         63.28220        39.26983        -0.60117
C         64.63989        41.48162        -0.72498
C         63.27251        42.27996        -0.47785
C         64.67237        44.16692         0.71914
C         63.36783        43.55900         0.35361
C         64.76987        45.65028         0.81400
C         63.54838        46.35224         1.21596
C         64.75988        48.50724         0.97099
C         63.53221        47.80973         1.20042
C         64.76901        49.91334         1.19296
C         63.62269        50.60889         1.68452
C         64.90550        52.72913         1.63951
C         63.70564        51.99725         1.91470
C         64.93706        54.18123         1.74451
C         63.80381        54.90312         2.19820
C         64.84645        57.04223         1.59695
C         63.80410        56.30249         2.21685
C         64.81436        58.47342         1.58998
C         63.76109        59.17643         2.26063
C         64.88770        61.40710         1.56126
C         63.86447        60.68790         2.46055
C         64.65605        62.85197         1.21016
C         63.43739        63.53452         1.70138
C         63.93176        65.50665         0.23444
C         63.45818        65.04026         1.62459
C         64.05544        67.02717         0.25803
C         62.88581        67.73012         0.82371
C         67.06951        32.85743         0.43992
C         65.92478        33.58413         0.50718
C         67.04047        35.63780        -0.26341
C         65.85205        34.97210         0.09456
C         67.07433        37.06058        -0.39099
C         65.84326        37.78593        -0.33645
C         67.10983        39.97043        -0.56249
C         65.81584        39.22722        -0.81069
C         67.13340        41.35423        -0.30820
C         65.91955        42.07579        -0.16409
C         67.23392        44.16366         0.44331
C         65.94532        43.40130         0.46314
C         67.22856        45.67651         0.44608
C         65.92380        46.36768         0.55947
C         67.11116        48.54213         0.15007
C         65.94698        47.81627         0.57927
C         67.00854        49.95920         0.19996
C         65.94653        50.63354         0.88253
C         67.30402        52.73150         0.92109
C         66.02647        52.02979         1.15163
C         67.28973        54.24593         0.86472
C         66.02793        54.92878         1.21106
C         66.79880        56.96736        -0.00693
C         65.92081        56.30943         1.01545
C         66.91437        58.45926         0.13764
C         66.06818        59.20693         1.14020
C         66.64165        61.29177        -0.19342
C         65.83217        60.64175         0.72676
C         66.44291        62.69992        -0.52321
C         65.41582        63.45973         0.09532
C         65.98651        65.42488        -1.24506
C         65.17607        64.79886        -0.26507
C         65.76445        66.79290        -1.64420
C         64.95742        67.67279        -0.76225
C         65.26804        69.52544        -2.35071
C         64.80912        69.08336        -1.17273
C         69.55430        31.20959        -0.24641
C         69.60958        32.69523        -0.02926
C         68.25573        33.36910        -0.25617
C         69.53915        35.57246        -0.66722
C         68.25073        34.86704        -0.57071
C         69.55801        36.99329        -0.62295
C         68.32088        37.72521        -0.57463
C         69.66664        39.90806        -0.61906
C         68.34147        39.19150        -0.73998
C         69.68064        41.36340        -0.30987
C         68.42197        42.06838        -0.16934
C         69.69071        44.21419         0.09025
C         68.43896        43.43317         0.01646
C         69.62821        45.63858        -0.45560
C         68.40128        46.43362        -0.04276
C         69.64552        48.45918        -0.52179
C         68.35282        47.80214        -0.22130
C         69.74385        49.76949        -0.95394
C         67.95849        50.84652        -0.42415
C         69.64222        52.76197        -0.13884
C         68.29531        52.07876         0.05216
C         69.44743        54.23294        -0.47369
C         68.30836        54.93034         0.02462
C         69.06436        56.98887        -1.06798
C         68.11968        56.28469        -0.27112
C         68.82354        58.36240        -1.41188
C         67.76735        59.11031        -0.71745
C         68.44875        61.17487        -1.88097
C         67.66542        60.55260        -0.92451
C         68.28378        62.57710        -2.17686
C         67.23690        63.31468        -1.52699
C         67.78672        65.28519        -2.92706
C         67.00819        64.67390        -1.89548
C         67.46498        66.59915        -3.38868
C         66.39730        67.32369        -2.75704
C         66.85635        69.28878        -4.30281
C         65.86508        68.59915        -3.38353
C         66.58237        70.58552        -4.76265
C         71.63119        31.22202        -1.50273
C         70.53423        30.53413        -0.91591
C         71.69227        32.61784        -1.45388
C         70.70573        33.37500        -0.82021
C         71.95362        35.53158        -0.94951
C         70.73686        34.82707        -0.82327
C         71.98999        36.91845        -0.80303
C         70.82177        37.66570        -0.62443
C         72.12880        39.88085        -0.53553
C         70.87860        39.11296        -0.17529
C         72.11686        41.23104        -0.52730
C         70.90813        42.00095        -0.26554
C         72.18108        44.24949        -0.43096
C         70.99322        43.46343        -0.04032
C         72.14785        45.61202        -0.44483
C         70.93873        46.37695        -0.30301
C         72.12165        48.57063        -0.45485
C         70.91720        47.77585        -0.37027
C         72.12809        49.92229        -0.70595
C         70.89029        50.61910        -0.89365
C         71.76606        52.85685        -1.45264
C         70.72911        52.03893        -0.94759
C         71.61410        54.21981        -1.62135
C         70.43013        54.92316        -1.20977
C         71.08627        57.01032        -2.43034
C         70.22249        56.31038        -1.55151
C         70.79818        58.30345        -2.82513
C         69.68468        59.00443        -2.30730
C         70.49383        61.19755        -3.31230
C         69.32658        60.37662        -2.82532
C         70.34629        62.52320        -3.51200
C         69.14866        63.22372        -3.07991
C         69.63285        65.19968        -4.52197
C         68.88070        64.57105        -3.50358
C         69.33315        66.48655        -4.94438
C         68.26263        67.21862        -4.39047
C         68.85073        69.27708        -5.69299
C         67.99016        68.60118        -4.80082
C         68.58361        70.57743        -6.10999
C         67.43656        71.23222        -5.65562
O         51.67007        54.68853         3.96471
O         69.16036        39.60632        -1.92760
O         56.65391        41.93479         2.36018
O         61.98213        52.14541         3.67312
O         60.19893        63.57435         5.22124
O         61.61104        54.73903         1.33109
O         51.55300        58.05777         0.60618
O         68.61736        50.34450        -1.54645
O         51.21867        51.35374         3.72992
O         59.97533        49.68044        -0.00202
O         62.88234        37.85235         1.43881
O         59.54377        56.31964         4.60129
O         56.99680        55.10487         1.14233
O         60.58550        38.36898        -1.16616
O         65.57059        62.47475         2.33079
O         60.08306        60.89248         5.19671
O         70.47455        43.93692         1.27376
O         67.51201        44.90178         1.67734
O         65.31838        43.40852         1.80328
O         62.90781        45.77193         2.41379
O         43.48233        51.35345        -0.77171
O         45.00122        49.00193         1.02148
O         67.83546        53.52486         2.03901
O         62.83514        42.76478        -1.73377
O         46.37056        46.26039         1.85706
O         68.03669        33.82395        -1.60741
O         46.99108        50.55363        -1.47200
O         65.36011        67.52977         0.65629
O         59.19322        46.34394        -0.72793
O         48.86387        50.51822         3.02312
O         70.25467        52.72932         1.19905
H         69.59748        53.13708         1.82055
O         43.24099        55.35341        -2.13923
H         42.55930        54.64750        -2.25958
O         54.93702        58.19050         5.52883
H         55.67244        57.62386         5.84228
O         63.38254        56.84236         4.43843
H         63.08606        57.61545         4.98507
O         42.15191        52.72797        -2.61112
H         42.41495        52.26323        -1.75999
O         64.44429        65.51895         2.57551
H         64.19540        65.19751         3.46652
O         64.72326        40.06297         1.18464
H         64.19496        39.34743         1.60281
O         65.78417        39.10714        -2.25163
H         65.48687        39.98222        -2.61482
O         49.25415        53.11978         3.83227
H         49.31644        52.18471         4.14327
O         55.98226        48.46880        -0.76719
H         56.79179        48.13661        -1.21244
O         63.18143        39.07343        -2.01883
H         62.98202        39.93945        -2.43420
O         44.50182        51.40788        -5.07753
H         44.33966        50.66530        -5.69684
O         62.86566        65.16072        -0.69086
H         63.15023        65.40408        -1.59677
O         66.03680        56.77053        -1.26759
H         66.54564        57.20374        -1.98740
O         53.37520        48.57280        -0.57102
H         54.23984        48.44439        -1.03332
O         50.18709        45.05178        -1.31648
H         49.47556        45.63104        -1.66167
O         51.02337        46.19837         2.79513
H         50.20803        46.57410         3.19245
O         45.67766        50.07624        -3.39120
H         45.92507        50.78845        -4.02932
O         66.89189        59.28921         2.36335
H         66.36700        59.77438         3.03907
O         62.01175        60.95343         0.96914
H         61.15628        61.39467         0.78744
O         64.85319        41.52408        -2.15360
H         64.09306        42.12369        -2.48150
O         69.45695        45.41623        -1.90691
H         69.48700        46.29245        -2.34767
O         62.24213        59.21162         5.10876
H         61.63741        59.74747         5.67470
O         64.29540        60.86512         3.82275
H         64.82526        61.69879         3.84791
O         52.20934        57.22249         4.85771
H         52.02671        56.28236         5.08829
O         69.89365        32.91978         1.39878
H         70.73234        32.45690         1.60827
O         54.90928        48.16704         2.75129
H         55.68549        48.55671         3.20484
O         68.48710        60.12099        -4.01180
H         68.25238        60.99509        -4.39070
O         70.80101        39.07022         1.28405
H         71.62559        38.66387         1.62344
O         64.74690        68.17021        -4.23992
H         65.13068        67.69178        -5.00499
H         40.05844        49.89114        -5.77170
H         38.95623        51.19379        -7.53918
H         41.65752        54.49815        -6.92723
H         39.79046        53.46980        -8.16149
H         41.04279        48.88366        -4.44470
H         43.38954        55.06449        -6.12136
H         42.21609        47.61599        -2.76685
H         44.84685        56.26947        -4.58368
H         44.61205        45.25884         0.08999
H         43.26666        46.51778        -1.48464
H         46.92004        58.64673        -1.54125
H         45.16521        57.50599        -2.82608
H         46.42683        44.07401         0.23981
H         47.92174        59.53647        -0.11648
H         48.51778        42.96642        -0.30230
H         49.55996        60.67609         1.25973
H         52.09309        40.63739         0.72892
H         50.05711        41.94172         0.38334
H         53.17489        62.61646         3.12640
H         51.24998        61.55841         2.01058
H         53.74782        39.62251         0.88161
H         54.51630        63.29148         4.52901
H         55.81450        38.36369         0.79613
H         56.65577        64.41129         4.82377
H         59.62357        36.19448         1.15691
H         57.52309        37.42935         1.21607
H         59.60365        66.49748         2.58822
H         57.86991        65.24652         3.63526
H         61.25103        35.09547         0.47706
H         61.08430        67.60908         1.94225
H         63.37809        33.93164         0.42414
H         62.75880        68.80448         0.62934
H         67.12499        31.87566         0.93191
H         65.05482        33.14148         1.01160
H         65.16434        70.59146        -2.59857
H         64.37781        69.78530        -0.44423
H         68.71902        30.65581         0.20661
H         65.67528        71.10626        -4.42685
H         72.40795        30.65659        -2.03395
H         70.47362        29.44092        -1.01834
H         72.50976        33.13030        -1.98227
H         72.89702        34.98217        -1.07291
H         72.96907        37.41706        -0.81352
H         73.07628        39.34907        -0.70229
H         73.05603        41.77356        -0.70496
H         73.13378        43.73595        -0.62039
H         73.08919        46.14996        -0.62792
H         73.08558        48.07404        -0.27932
H         73.07721        50.47662        -0.69545
H         72.67091        52.37517        -1.85339
H         72.42295        54.77550        -2.11429
H         71.97026        56.51373        -2.85162
H         71.45838        58.78518        -3.55837
H         71.42695        60.70595        -3.61935
H         71.16982        63.10352        -3.95207
H         70.46549        64.66661        -5.00010
H         69.95424        66.92911        -5.73409
H         69.75306        68.78099        -6.07387
H         69.26967        71.08115        -6.80476
H         67.20599        72.25031        -5.99784
