         344
 CSIRO Nanostructure Databank - Neutral Graphene Oxide Data Set
C          1.44268         3.91372        -2.84538
C          0.27356         4.61981        -2.89906
C          1.30288         6.57736        -1.83793
C          0.20676         5.95405        -2.40503
C          1.26326         7.99215        -1.44255
C          0.08038         8.75088        -1.58370
C          1.18799        10.74458        -0.74573
C          0.03702        10.08632        -1.20816
C          1.12091        12.15099        -0.28537
C         -0.02478        13.03410        -0.55192
C          1.18910        15.00719         0.27425
C         -0.00177        14.34872        -0.13403
C          1.18684        16.30674         0.88924
C         -0.02475        16.85386         1.39714
C          1.20379        18.70957         2.33735
C          0.00127        17.99763         2.17487
C          1.26703        21.01685         2.71398
C          0.08510        21.76088         2.80391
C          1.24598        23.68125         1.89572
C          0.05742        23.06476         2.33322
C          1.21909        25.07068         1.42335
C          0.02072        25.77267         1.27098
C          1.15687        27.72648         0.35896
C         -0.01616        27.07269         0.74014
C          1.14029        29.06003        -0.19595
C          3.79552         3.75548        -2.22165
C          2.61622         4.47793        -2.23080
C          3.67720         6.44947        -1.17628
C          2.54715         5.83627        -1.69540
C          3.62367         7.82174        -0.54978
C          2.42715         8.64136        -0.97478
C          3.66841        10.71569        -0.37345
C          2.41402        10.02838        -0.68672
C          3.67773        12.06373        -0.10561
C          2.42558        12.83263         0.03649
C          3.71582        14.93797         0.44847
C          2.47858        14.34306        -0.14888
C          3.72105        16.32322         1.03138
C          2.39583        17.04250         1.08638
C          3.66331        19.14548         1.75893
C          2.40145        18.31621         1.71107
C          3.70437        20.70542         1.98432
C          2.46769        21.54735         2.19754
C          3.76043        23.70272         1.85086
C          2.45565        22.93509         1.89315
C          3.67634        25.03274         1.13585
C          2.44614        25.71089         1.03361
C          3.61278        27.73085         0.21362
C          2.41217        27.05432         0.52093
C          3.58720        29.09045        -0.31005
C          2.29127        29.70350        -0.53064
C          6.29000         3.65915        -1.76177
C          4.97215         4.21718        -1.50515
C          6.19059         6.41665        -0.85174
C          4.91467         5.69648        -0.95500
C          6.16218         7.85081        -0.68437
C          4.93988         8.56462        -0.60756
C          6.16462        10.66011        -0.34641
C          4.93789         9.96698        -0.44102
C          6.16361        12.16904        -0.33156
C          4.94328        12.73299         0.37297
C          6.16574        14.94966         0.43410
C          4.92619        14.25752         0.35761
C          6.21943        16.45482         0.66057
C          4.82625        17.16290         0.38050
C          5.70531        19.46980         0.41797
C          4.75618        18.60281         0.89894
C          6.00819        20.77738         0.86182
C          4.88836        21.47851         1.45664
C          6.07215        23.49384         0.67405
C          4.90671        22.85128         1.38622
C          6.12391        24.99379         0.79220
C          4.87446        25.68525         0.75853
C          6.08119        27.73580         0.10342
C          4.85401        27.06189         0.36867
C          6.09888        29.21203        -0.21905
C          4.75229        29.75341        -0.60277
C          8.70902         3.65837        -1.43865
C          7.44641         4.31968        -1.35829
C          8.65249         6.42617        -0.81131
C          7.40472         5.72391        -0.96144
C          8.64213         7.84075        -0.59330
C          7.40174         8.54998        -0.55482
C          8.64017        10.66367        -0.16549
C          7.39441         9.96465        -0.37217
C          8.61307        12.09121         0.11351
C          7.43227        12.78317         0.20154
C          8.61566        14.91573         0.58819
C          7.40644        14.23289         0.42513
C          8.73708        16.29852         0.04335
C          7.46386        17.07567         0.02037
C          8.70724        19.24238         0.22129
C          7.58393        18.41834        -0.19091
C          8.58538        20.59734         0.54389
C          7.32764        21.36753         0.67475
C          8.62796        23.50758         0.98756
C          7.37507        22.75649         0.86626
C          8.60875        25.02182         0.82474
C          7.30887        25.69050         0.58881
C          8.58085        27.81983        -0.03864
C          7.29218        27.06879         0.23048
C          8.37226        28.85036        -1.13691
C          7.20232        29.51010        -1.20678
C         11.15074         3.61754        -1.13946
C          9.90926         4.31533        -1.15319
C         11.11850         6.43142        -0.68668
C          9.88648         5.73603        -0.87590
C         11.11933         7.83815        -0.45613
C          9.86807         8.54236        -0.41521
C         11.11119        10.59493         0.24987
C          9.84275         9.94514        -0.15647
C         11.12992        12.07345         0.47844
C          9.91117        12.86735         0.08176
C         11.15983        14.92849         0.65330
C          9.87428        14.15498         0.89884
C         11.13874        16.34902         0.65586
C          9.93181        17.08515         0.49522
C         11.15868        19.19809         0.68678
C          9.92199        18.48666         0.50927
C         11.15214        20.61942         0.70254
C          9.85279        21.30204         1.05889
C         11.08695        23.46602         0.59896
C          9.90568        22.78810         0.77307
C         11.13872        24.98657         0.67539
C          9.83350        25.67096         0.33977
C         10.94917        27.47236        -0.87879
C          9.77943        26.91273        -0.25017
C         10.84516        28.62647        -1.69875
C          9.49857        29.19736        -2.07961
C         13.58564         3.55791        -0.77778
C         12.36412         4.27609        -0.90802
C         13.56819         6.41283        -0.56563
C         12.35986         5.72161        -0.73150
C         13.58405         7.81067        -0.36261
C         12.36647         8.52373        -0.30516
C         13.57655        10.67637        -0.05098
C         12.39568         9.93878        -0.03343
C         13.58758        12.09817         0.13853
C         12.41015        12.80024         0.37609
C         13.63898        14.94524         0.52903
C         12.37323        14.23488         0.49405
C         13.60038        16.35911         0.73319
C         12.38019        17.06639         0.70221
C         13.66335        19.17016         0.39723
C         12.36680        18.48267         0.69763
C         13.63697        20.66616         0.57001
C         12.37457        21.34313         0.62462
C         13.58013        23.47066         0.38312
C         12.36291        22.76897         0.56362
C         13.54559        24.86748        -0.00678
C         12.33122        25.57085        -0.03635
C         13.36041        27.39639        -1.32743
C         12.22217        26.82873        -0.72491
C         13.26044        28.56398        -2.12376
C         11.97945        29.15423        -2.30787
C         16.00134         3.51841        -0.29488
C         14.81301         4.20530        -0.55275
C         15.93384         6.33299         0.20060
C         14.89274         5.70731        -0.72540
C         16.01655         7.82348        -0.03267
C         14.86045         8.51483        -0.21985
C         16.05799        10.69833         0.30551
C         14.89320        10.01428        -0.40647
C         16.09526        12.05658         0.36893
C         14.88294        12.84328        -0.10041
C         16.17030        14.98319         0.38880
C         14.85165        14.25725         0.40601
C         16.11870        16.32734         1.08103
C         14.82926        17.06176         1.13189
C         16.14030        19.20944         0.81065
C         14.81431        18.57782         1.22694
C         16.16525        20.68613         0.60123
C         14.84019        21.37679         0.59812
C         16.08066        23.46398         0.16817
C         14.83221        22.78909         0.43466
C         15.97864        24.77617        -0.42796
C         14.74945        25.44247        -0.50707
C         15.68752        27.04127        -2.17053
C         14.73471        26.87247        -0.99564
C         15.65371        28.45135        -2.72212
C         14.42627        29.11660        -2.74486
C         18.45167         3.47618         0.14957
C         17.23390         4.20518        -0.02719
C         18.45668         6.29872         0.41111
C         17.25267         5.60914         0.11298
C         18.49667         7.72442         0.49256
C         17.33688         8.55961        -0.00646
C         18.49616        10.59038         0.95493
C         17.18274         9.84250         0.84585
C         18.52078        11.99657         1.03637
C         17.29495        12.77646         0.82229
C         18.52720        14.85607         1.50977
C         17.32207        14.14534         0.90771
C         18.59851        16.34924         1.26664
C         17.38821        17.09608         1.15689
C         18.57080        19.25241         1.58680
C         17.37096        18.47577         1.15443
C         18.56634        20.74176         1.22249
C         17.42948        21.46688         0.83061
C         18.52726        23.71832         0.21123
C         17.35080        22.87767         0.44973
C         18.44431        24.86643        -0.64884
C         17.16334        25.40092        -0.98658
C         18.21201        27.17019        -2.33180
C         17.06460        26.54987        -1.78912
C         18.08119        28.35584        -3.14531
C         16.81684        28.98027        -3.30273
C         19.61354         4.12280         0.50113
C         20.81937         6.22298         1.06341
C         19.64648         5.54022         0.65198
C         20.81689         7.59369         1.21996
C         19.66503         8.37366         0.90776
C         20.92099        10.53434         1.11568
C         19.69719         9.84060         1.00044
C         20.95735        11.91699         1.18591
C         19.77072        12.68659         1.14866
C         20.99033        14.86357         1.07062
C         19.81015        14.12972         1.19685
C         21.02145        16.26329         1.12374
C         19.83388        17.03275         1.22105
C         21.03748        19.20287         1.36222
C         19.86307        18.49522         1.27943
C         21.01669        20.60772         1.61442
C         19.84158        21.32486         1.56271
C         20.94306        24.20143         0.42482
C         19.78691        23.50643         0.80755
C         20.87492        25.16304        -0.57289
C         19.62145        25.54411        -1.09710
C         20.63576        27.27513        -2.60203
C         19.51054        26.66104        -2.01848
C         20.49673        28.38021        -3.45043
C         19.24596        28.93116        -3.70623
O          1.20080        19.73775         3.27499
O          8.69288        24.42278         2.17033
O         19.92075        22.67361         1.92068
O         15.39016        16.39584         2.34742
O         11.00650        11.18547         1.61438
O          1.59803        12.35107         1.13046
O         16.25907        19.75281        -0.56927
O          6.45534        19.06999        -0.69675
O          4.03492        19.74351         3.03544
O          4.75501         4.54154        -0.08863
O          9.03536        15.99407        -1.41384
H          9.56238        16.74308        -1.77011
O          5.07054        12.37776         1.77845
H          4.18225        12.42240         2.19107
O          6.47797        29.91115         1.03491
H          5.78057        29.71488         1.69685
O          8.91414        28.56928         1.16959
H          8.15583        29.18738         1.33456
O         15.14245        10.21958        -1.83917
H         15.16156        11.20121        -1.99211
O         18.49662        19.25882         3.06835
H         18.57009        18.32580         3.36583
O         16.79611         9.38820         2.17763
H         16.64417        10.17958         2.73576
O          3.41121         7.56086         0.88678
H          2.64980         6.94812         0.96854
O         14.58937        18.94314         2.60316
H         14.95955        18.21790         3.15764
O          4.04801        16.15217         2.45293
H          3.31097        15.66437         2.87727
O          4.56954        17.12962        -1.03766
H          5.21706        17.74537        -1.45578
O         15.46065         6.14389         1.56636
H         15.98662         6.72999         2.15124
O         18.34043        14.73230         2.97852
H         18.37408        13.77541         3.19356
O          6.56731        16.64856         2.06038
H          5.79011        16.38082         2.60890
O         15.24506        27.70045         0.09151
H         14.62984        27.61286         0.84978
O          6.06784        12.60590        -1.72292
H          6.87330        12.30087        -2.19120
O         11.34378        25.27126         2.10585
H         10.49164        25.04071         2.55283
O          9.84040        13.78625         2.29979
H          9.70234        14.59852         2.82957
O         16.49847        15.28402        -1.00836
H         16.32233        14.45954        -1.52286
O          9.15224        28.69036        -3.38394
H          9.93898        28.77365        -3.96113
O          2.61415        14.55559        -1.60172
H          3.06723        15.41899        -1.73309
O         15.34720         5.94464        -2.08677
H         14.66919         5.59059        -2.69879
O         17.66077         8.95406        -1.36169
H         16.84290         9.33879        -1.76791
O         13.86900        18.86369        -1.01032
H         14.73080        19.27444        -1.27947
O         10.11171        13.24281        -1.30973
H          9.60943        14.07940        -1.47936
O          4.02904        24.05106         3.25814
H          4.17566        23.21301         3.74720
O         15.20690        26.16984        -3.23567
H         15.81701        26.26284        -3.99679
O         15.03532        12.95649        -1.59281
H         14.21600        13.38329        -1.92794
O          5.76598        23.32447        -0.78063
H          5.72132        22.35741        -0.95036
O          9.75051        21.19813         2.52723
H         10.50079        21.69697         2.91522
H          1.50015         2.89095        -3.24475
H         -0.62516         4.17448        -3.34798
H         -0.74646         6.48756        -2.51473
H         -0.84250         8.28192        -1.94834
H         -0.91794        10.62571        -1.27003
H         -0.94998        12.61756        -0.97368
H         -0.94294        14.91874        -0.17000
H         -0.97110        16.31384         1.26421
H         -0.90735        18.35893         2.67372
H         -0.81319        21.29295         3.22629
H         -0.88707        23.62141         2.36951
H         -0.93571        25.30968         1.54757
H         -0.98466        27.58012         0.62333
H          0.16661        29.55032        -0.34422
H          3.86270         2.81865        -2.79561
H          2.26053        30.71946        -0.95108
H          6.36621         2.68616        -2.27004
H          4.70847        30.77617        -1.00798
H          8.72700         2.59029        -1.70218
H          7.04432        30.29740        -1.95999
H         11.14826         2.52830        -1.29686
H          9.58713        30.32349        -2.14735
H         13.55141         2.45689        -0.78266
H         11.88611        30.03787        -2.95868
H         15.99875         2.41706        -0.27826
H         14.34403        30.08830        -3.25620
H         18.43900         2.38253         0.03429
H         16.76804        29.95078        -3.82091
H         20.53587         3.54935         0.67479
H         21.73131         5.64558         1.27408
H         21.73231         8.08756         1.57320
H         21.87000         9.98223         1.13326
H         21.93122        12.41605         1.27902
H         21.94361        14.33887         0.91214
H         21.99605        16.76273         1.04420
H         22.01331        18.70302         1.28999
H         21.95290        21.12911         1.85146
H         21.89328        23.97654         0.92592
H         21.79185        25.68107        -0.88206
H         21.64448        26.88713        -2.40686
H         21.39338        28.83126        -3.89825
H         19.15328        29.82602        -4.33815
