         404
 CSIRO Nanostructure Databank - Neutral Graphene Oxide Data Set
C          1.18418         3.16417         0.68826
C          0.11861         3.52310         1.50030
C          1.20963         5.65045         1.95261
C          0.14581         4.75356         2.16343
C          1.20870         8.07070         2.26098
C          0.11079         8.87409         2.65388
C          1.19388        10.83974         1.73869
C          0.07106        10.21667         2.32954
C          1.20848        12.26403         1.47287
C          0.04618        13.07750         1.56597
C          1.30088        15.07625         0.92364
C          0.09265        14.43396         1.29960
C          1.36286        16.46638         0.53791
C          0.23202        17.33102         0.73425
C          1.25480        19.07380        -0.62971
C          0.22335        18.60918         0.24431
C          1.02589        20.21063        -1.41831
C          0.03062        21.21484        -1.26368
C          1.48492        23.20785        -1.84078
C          0.23813        22.53459        -1.63494
C          1.47963        24.65335        -1.91219
C          0.27088        25.37873        -2.15548
C          1.38544        27.51636        -1.78228
C          0.22028        26.74758        -2.07506
C          1.34237        28.93982        -1.60260
C          0.10857        29.68052        -1.78651
C          1.15133        31.78423        -1.04493
C          0.01892        31.01712        -1.58450
C          1.12652        33.26871        -1.06244
C         -0.04880        33.94913        -0.89185
C          1.09946        36.09084        -0.60487
C         -0.08173        35.36554        -0.74647
C          1.06885        37.49333        -0.27515
C          3.44016         3.55786        -0.16290
C          2.28891         4.03979         0.51330
C          3.38917         6.28047         0.71742
C          2.29313         5.33931         1.11675
C          3.37077         7.77620         0.91360
C          2.30657         8.60445         1.58249
C          3.56705        10.71073         1.13542
C          2.34798        10.04053         1.43334
C          3.63505        12.12185         1.07892
C          2.42763        12.89364         1.12325
C          3.73455        14.91553         0.56168
C          2.48492        14.29207         0.85253
C          3.77902        16.26889         0.10633
C          2.54106        16.98881        -0.03038
C          3.89028        18.96471        -1.07204
C          2.50994        18.28973        -0.73782
C          3.97550        20.43429        -1.22213
C          2.90279        21.14917        -1.77420
C          3.93056        23.28819        -1.33201
C          2.75245        22.55348        -1.66618
C          3.91280        24.70912        -1.42820
C          2.67286        25.39123        -1.71814
C          3.82567        27.57418        -1.48778
C          2.62855        26.82997        -1.67155
C          3.78781        28.96830        -1.31211
C          2.53045        29.63896        -1.32005
C          3.73854        31.86524        -0.99029
C          2.48168        31.07313        -0.97376
C          3.68750        33.27187        -0.93426
C          2.41475        34.02478        -1.28277
C          3.54998        36.12145        -0.46701
C          2.37094        35.42887        -0.72408
C          3.50093        37.52130        -0.09219
C          2.21981        38.17882        -0.03091
C          5.86008         3.64740        -0.51850
C          4.65232         4.27975        -0.14883
C          5.92168         6.29217         0.35933
C          4.68937         5.63091         0.32947
C          5.95362         7.66693         0.92644
C          4.70567         8.47179         0.72533
C          6.11141        10.59119         1.13675
C          4.80488         9.94929         0.87567
C          6.11322        12.05794         1.46089
C          4.88485        12.79313         1.01351
C          6.19591        14.87752         0.75215
C          4.94754        14.18021         0.76077
C          6.22430        16.26421         0.39253
C          5.03487        16.90874        -0.05537
C          6.30814        19.08768        -0.19710
C          5.20029        18.22901        -0.77908
C          6.30002        20.49313        -0.33287
C          5.11964        21.17517        -0.80396
C          6.31503        23.34580        -0.67396
C          5.12231        22.59655        -0.94514
C          6.31513        24.76097        -0.90730
C          5.11853        25.42111        -1.27278
C          6.32042        27.63283        -1.15409
C          5.13954        26.86820        -1.67424
C          6.25115        29.05302        -1.11017
C          5.02010        29.72812        -1.13751
C          6.18668        31.91501        -0.83811
C          4.97461        31.16763        -0.99289
C          6.12327        33.32768        -0.73408
C          4.88929        34.02159        -0.79017
C          5.99403        36.18936        -0.26793
C          4.84060        35.46195        -0.55532
C          5.94000        37.56816         0.16197
C          4.66412        38.21076         0.21171
C          8.25215         3.46853        -0.76411
C          7.10100         4.30709        -0.52749
C          8.35019         6.48823        -0.04661
C          7.13181         5.70458        -0.12931
C          8.46624         7.67482         0.67500
C          7.25357         8.38548         1.12051
C          8.56338        10.56668         1.18154
C          7.29465         9.87904         1.14682
C          8.58346        11.98218         1.12720
C          7.39801        12.73645         1.08962
C          8.64968        14.86444         1.03581
C          7.42332        14.15885         0.97981
C          8.59216        16.35797         1.22900
C          7.43106        17.01298         0.52794
C          8.64802        19.17925         0.60548
C          7.45950        18.41716         0.30176
C          8.63648        20.57618         0.44685
C          7.47390        21.25750        -0.02020
C          8.69344        23.44783        -0.00876
C          7.49387        22.67990        -0.22113
C          8.69022        24.83497        -0.28100
C          7.53276        25.51152        -0.74413
C          8.73879        27.71141        -0.70473
C          7.52215        26.94607        -0.90292
C          8.74916        29.08653        -0.72047
C          7.53806        29.82522        -1.22694
C          8.64244        31.93934        -0.47833
C          7.45719        31.25499        -0.79064
C          8.62492        33.36263        -0.33810
C          7.38816        34.06872        -0.68119
C          8.49327        36.21283         0.18617
C          7.32513        35.58362        -0.42594
C          8.38918        37.60235         0.59665
C          7.10525        38.24707         0.51823
C         10.77632         3.47375        -1.10489
C          9.47428         3.96886        -1.22387
C         10.83145         6.44701        -0.41744
C          9.55403         6.07133        -0.73138
C         11.08079         7.55876         0.57278
C          9.77862         8.28979         0.94425
C         11.11086        10.49641         0.93200
C          9.82482         9.79357         1.21293
C         11.15187        11.91172         1.34053
C          9.85536        12.70450         1.35673
C         11.09906        14.88287         1.21466
C          9.88134        14.17906         1.20401
C         11.11319        16.31817         1.02431
C          9.90096        17.05217         0.97288
C         11.12789        19.15778         0.93279
C          9.89036        18.46344         0.87295
C         11.13986        20.63388         1.06574
C          9.82601        21.37622         0.80859
C         11.14654        23.45922         0.47827
C          9.91413        22.79805         0.42221
C         11.19584        24.92259         0.33195
C          9.91046        25.62252        -0.00946
C         11.24304        27.72577        -0.31413
C         10.02707        26.94333        -0.72395
C         11.20802        29.13863        -0.29573
C          9.96482        29.83482        -0.46979
C         11.09202        31.98410        -0.03795
C          9.90509        31.23825        -0.34389
C         11.02494        33.39247         0.18651
C          9.77406        34.08626         0.02451
C         10.86814        36.17221         0.80283
C          9.69428        35.50143         0.31436
C         10.82256        37.61457         1.27325
C          9.50518        38.28540         1.03178
C         13.16482         3.64941        -1.44837
C         11.94162         4.30819        -1.23317
C         13.19284         6.44967        -1.02086
C         11.97649         5.73754        -0.95723
C         13.21713         7.87073        -0.66702
C         12.18419         8.46806         0.02395
C         13.43916        10.65721         0.07785
C         12.21409         9.88600         0.35337
C         13.57460        11.99082         0.54095
C         12.44586        12.65140         1.24055
C         13.61463        14.90307         0.92049
C         12.39135        14.17527         1.28527
C         13.61699        16.28278         0.85925
C         12.35285        17.01687         0.91898
C         13.61037        19.16097         1.02544
C         12.32923        18.42912         0.91162
C         13.64515        20.65711         1.02402
C         12.38824        21.39360         0.88286
C         13.67874        23.49326         0.57139
C         12.40202        22.76213         0.65541
C         13.69928        24.89883         0.25048
C         12.48424        25.61323         0.06563
C         13.70132        27.76627        -0.40357
C         12.45584        27.01018        -0.18059
C         13.66334        29.22512        -0.24832
C         12.42961        29.88827        -0.13042
C         13.52880        32.08855         0.25272
C         12.35265        31.32557         0.01544
C         13.44894        33.43976         0.62899
C         12.19121        34.10778         0.57447
C         13.29157        36.32768         1.16406
C         12.07936        35.51202         0.87835
C         13.23936        37.74652         0.69963
C         12.00016        38.36434         0.69043
C         15.60054         3.66262        -1.79795
C         14.38589         4.34704        -1.55403
C         15.60590         6.47696        -1.61981
C         14.39288         5.77735        -1.41546
C         15.56580         7.95084        -1.69727
C         14.36033         8.68649        -1.14389
C         15.74313        10.78133        -0.79668
C         14.52804        10.07221        -0.62718
C         15.89060        12.10472        -0.28228
C         14.77694        12.70538         0.35971
C         16.14295        14.87349         0.56669
C         14.86154        14.11403         0.82362
C         16.07818        16.34355         0.47812
C         14.86796        16.98842         0.65784
C         16.12220        19.21827         0.54488
C         14.83117        18.45239         0.55240
C         16.10109        20.66731         0.81821
C         14.92293        21.37143         0.82005
C         16.16443        23.51679         0.78369
C         14.90254        22.81628         0.75270
C         16.14483        24.93426         0.58376
C         14.96617        25.58468         0.21115
C         16.25236        27.78257         0.05916
C         15.03780        27.00268        -0.21649
C         16.26778        29.23397        -0.15935
C         14.90829        29.99069        -0.32910
C         16.08038        32.14013         0.51916
C         14.84913        31.45653         0.00566
C         15.97112        33.45716         1.23415
C         14.64006        34.14223         1.20321
C         15.82324        36.39576         0.87857
C         14.61804        35.64577         1.28633
C         15.71430        37.73051         0.41165
C         14.44640        38.38262         0.32971
C         18.05257         3.64963        -2.08025
C         16.81135         4.35375        -1.89324
C         18.07570         6.49559        -1.91904
C         16.81794         5.78815        -1.82228
C         18.12806         7.91348        -1.84606
C         16.86464         8.68256        -1.84464
C         18.25316        10.74443        -1.30488
C         16.91303        10.14280        -1.46210
C         18.27247        12.20589        -1.14714
C         17.12695        12.86351        -0.48566
C         18.50190        14.94413        -0.24778
C         17.26470        14.18903        -0.10454
C         18.53876        16.34575         0.07095
C         17.32702        17.06290         0.33430
C         18.61668        19.13460         0.65897
C         17.37785        18.45323         0.56377
C         18.64725        20.55146         1.12490
C         17.37075        21.34975         1.10337
C         18.66243        23.45947         0.94227
C         17.39128        22.81825         0.96421
C         18.68756        24.94512         0.93770
C         17.39725        25.69795         0.77543
C         18.65731        27.85683         0.55113
C         17.43227        27.14342         0.44144
C         18.63301        29.28327         0.66410
C         17.41277        29.95484         0.42650
C         18.61314        32.15584         1.09109
C         17.28722        31.33234         0.83910
C         18.52705        33.61009         0.94165
C         17.24765        34.27104         1.28921
C         18.31950        36.44686         0.43842
C         17.14531        35.77720         1.01498
C         18.16765        37.79697        -0.00515
C         16.89535        38.42142         0.01932
C         19.23765         4.32236        -2.15023
C         20.51247         6.45013        -2.09352
C         19.28101         5.75582        -2.05299
C         20.55527         7.82433        -1.95262
C         19.36780         8.58844        -1.80634
C         20.69165        10.70835        -1.41834
C         19.41287        10.03457        -1.56463
C         20.80480        12.03662        -1.17126
C         19.62788        12.91424        -1.14976
C         20.91694        15.00836        -0.61730
C         19.69420        14.29591        -0.62475
C         20.95604        16.35582        -0.32206
C         19.76839        17.06993        -0.00568
C         20.97221        19.30377         0.01040
C         19.79694        18.48187         0.27518
C         21.02657        20.61723         0.31453
C         19.99700        21.26652         1.20771
C         21.10766        23.51826         1.12711
C         19.88387        22.77656         1.02789
C         21.18820        24.86439         0.90257
C         19.97706        25.62336         0.57353
C         21.16335        27.94736         0.64686
C         19.94520        27.15303         0.44380
C         21.10770        29.29099         0.82590
C         19.86441        30.02927         0.82696
C         20.99676        32.25794         0.53766
C         19.86021        31.44313         0.83155
C         20.89552        33.62246         0.40763
C         19.65643        34.33733         0.57988
C         20.66956        36.51354        -0.16616
C         19.56220        35.78031         0.31614
C         20.54221        37.85760        -0.53551
C         19.31133        38.49552        -0.47923
O         14.47294        27.25414        -1.54297
O          6.53539         7.77294         2.26874
O         10.30499        21.11854         2.16864
O         18.78655        12.86936        -2.35291
O          7.56031        35.04240        -1.77043
O          2.91695         7.20281        -0.36490
O         14.54629         8.49381        -2.59141
O         18.01166        25.49387         2.11610
O         15.82945        14.34491         1.90615
O         13.73325        19.86088         2.29917
O          3.12414        18.24735        -2.07639
O          4.76878         9.29200        -0.47815
O         10.37363        25.62601         1.36337
O          1.67250        31.29480         0.25094
O         17.92464        20.78249         2.38431
O         17.80108        31.60863         2.16787
O         19.98876        26.25193        -0.74564
O         16.75106         9.72000        -2.86621
O         15.14445        33.46856         2.42122
O         15.72574        32.25167        -0.88749
O          9.87061         8.81481         2.31649
O         13.90398        36.15856         2.48548
O         12.72462        13.35047         2.48091
O         17.35224        35.20357         2.38261
O          1.91986        20.44689        -2.48250
O          1.16273         6.77744         2.77107
O         15.35280        18.95207        -0.72073
O         15.77130        29.69696        -1.45977
O          9.37739         5.23978        -1.83774
O         10.47075        12.19644         2.59840
O          7.77047        29.89740        -2.69901
H          7.81487        28.97201        -3.02506
O          5.34735        26.84858        -3.15001
H          5.24882        27.77268        -3.46609
O         10.24491        26.58351        -2.13419
H         10.44404        27.40625        -2.62957
O         11.00320        37.60280         2.73186
H         11.88158        37.20622         2.92523
O          8.32212        16.54148         2.67777
H          9.08136        16.15945         3.16878
O         11.60186         6.96682         1.78908
H         11.34602         7.56921         2.52637
O          5.71705        17.84375        -2.10325
H          4.93140        17.57699        -2.63503
O          6.05781        12.13342         2.94814
H          6.89757        11.75510         3.28973
O          2.50224        34.19160        -2.75427
H          3.27849        34.76435        -2.93628
O         20.49704        21.07600         2.56268
H         19.70858        21.12132         3.15284
H          1.20406         2.18158         0.19683
H         -0.72639         2.83683         1.64661
H         -0.66232         5.03994         2.84861
H         -0.72340         8.40180         3.18863
H         -0.81395        10.80802         2.59863
H         -0.92009        12.62677         1.83031
H         -0.83970        15.01183         1.35789
H         -0.63041        16.97173         1.30989
H         -0.66015        19.24373         0.40133
H         -0.93324        20.95807        -0.79955
H         -0.64654        23.18058        -1.54129
H         -0.65124        24.84002        -2.40955
H         -0.74297        27.24760        -2.24037
H         -0.77254        29.15025        -2.17236
H         -0.90470        31.55037        -1.85168
H         -0.99557        33.39595        -0.80510
H         -1.05003        35.87368        -0.63628
H          0.09278        37.99598        -0.21161
H          3.42787         2.53751        -0.57317
H          2.19151        39.24670         0.23015
H          5.82498         2.58659        -0.80806
H          4.61049        39.26709         0.51398
H          8.14994         2.39520        -0.54392
H          7.03510        39.30161         0.82364
H         10.93060         2.41262        -0.85778
H          9.41346        39.34257         1.32328
H         13.16702         2.55624        -1.57303
H         11.89694        39.41334         0.37630
H         15.58925         2.56706        -1.89681
H         14.41480        39.42676        -0.01353
H         18.02768         2.55248        -2.14988
H         16.81103        39.46494        -0.31722
H         20.18356         3.77603        -2.27684
H         21.44535         5.88176        -2.21775
H         21.53434         8.31958        -1.96809
H         21.61153        10.10969        -1.44344
H         21.79409        12.46335        -0.95257
H         21.84766        14.49227        -0.88976
H         21.92106        16.87892        -0.34718
H         21.80319        18.85453        -0.55254
H         21.91390        21.20340         0.03342
H         22.02749        22.95805         1.34697
H         22.16645        25.36432         0.88804
H         22.13583        27.43691         0.62195
H         22.04437        29.84601         0.97606
H         21.97421        31.78282         0.37568
H         21.80529        34.18412         0.15922
H         21.65291        36.03579        -0.26259
H         21.42543        38.40226        -0.89709
H         19.20853        39.54130        -0.80095
