         649
 CSIRO Nanostructure Databank - Neutral Graphene Oxide Data Set
C          5.86240        31.74880         0.29301
C          5.85301        33.10376         0.13919
C          8.43973        27.70964         1.29153
C          8.34978        28.89859         0.61518
C          7.11703        29.63325         0.51671
C          8.28150        31.69115        -0.19408
C          7.08369        30.98462         0.17012
C          8.29399        33.08033        -0.27224
C          7.06739        33.83650        -0.12909
C          8.27023        35.95390        -0.53721
C          7.06625        35.21820        -0.27823
C          8.28550        37.34835        -0.67701
C         11.06895        23.52986         2.22498
C         10.99538        24.92057         1.91089
C          9.76973        25.58695         1.81352
C         10.96748        27.61496         1.04150
C          9.74127        27.08567         1.73464
C         10.87434        28.84121         0.23556
C          9.55455        29.47960        -0.04831
C         10.74903        31.71153        -0.07595
C          9.52818        30.91812        -0.59002
C         10.75881        33.12721        -0.60689
C          9.52674        33.81259        -0.52247
C         10.73429        35.91821        -0.82938
C          9.50160        35.21992        -0.65977
C         10.73363        37.32914        -0.79982
C          9.50885        38.06279        -0.83029
C         10.72594        40.17924        -1.28862
C          9.53160        39.46759        -1.07266
C         10.79759        41.57448        -1.39908
C         13.49689        19.32218         3.16356
C         13.51870        20.80993         2.90452
C         12.35394        21.47967         2.70844
C         13.50985        23.65147         2.32224
C         12.29684        22.90298         2.43600
C         13.47256        24.98504         1.87940
C         12.23643        25.63022         1.68911
C         13.40680        27.54864         0.58452
C         12.18242        26.97593         1.15608
C         13.33604        28.88813         0.00639
C         12.13480        29.57118         0.01788
C         13.32039        31.68385        -0.75811
C         12.09248        31.01532        -0.17734
C         13.04931        32.92327        -1.61502
C         11.95025        33.78604        -0.99698
C         13.19649        35.91824        -1.25412
C         11.95227        35.19384        -1.06734
C         13.26487        37.27020        -1.00409
C         12.02287        38.02340        -0.76784
C         13.19945        40.13623        -1.87215
C         12.03286        39.49181        -1.11073
C         13.25742        41.58521        -1.39843
C         12.05629        42.25571        -1.28053
C         13.26483        44.48963        -1.09628
C         11.99077        43.71072        -0.85267
C         13.30007        45.82865        -0.86010
C         15.83881        15.01298         2.03131
C         15.97898        16.39736         2.60793
C         14.73554        17.24604         2.66194
C         16.00976        19.37121         2.62645
C         14.77129        18.60217         2.76712
C         16.05282        20.73897         2.77741
C         14.81208        21.52915         3.00086
C         16.04054        23.70427         2.20049
C         14.80320        23.03452         2.68239
C         16.00929        24.95141         1.60741
C         14.74908        25.79220         1.75765
C         15.81395        27.39087         0.04616
C         14.61040        26.90444         0.74446
C         15.75916        28.73900        -0.63585
C         14.52185        29.54200        -0.51420
C         15.66797        31.43263        -1.75155
C         14.48487        30.82103        -1.01666
C         15.64190        32.96942        -1.42949
C         14.38847        33.66328        -2.06207
C         15.70348        35.87335        -1.65175
C         14.38784        35.18686        -1.76497
C         15.81002        37.26334        -1.08666
C         14.53755        38.10113        -0.86393
C         15.80843        40.17677        -1.56226
C         14.55637        39.32166        -1.84946
C         15.80053        41.60066        -1.49826
C         14.53953        42.30278        -1.07118
C         15.74143        44.49383        -1.83005
C         14.47580        43.74546        -1.53579
C         15.69458        45.98479        -1.64372
C         14.50721        46.61227        -0.99829
C         15.77603        48.69865        -0.59128
C         14.55260        47.93366        -0.61932
C         15.79786        50.03471        -0.28095
C         17.73955        10.90503         0.21750
C         17.99316        12.15395         0.85456
C         16.90026        12.94795         1.21667
C         18.28251        14.97387         1.67403
C         16.97249        14.30541         1.68537
C         18.36813        16.33185         1.75936
C         17.13079        17.13322         1.95628
C         18.54069        19.29663         2.10668
C         17.19924        18.61672         2.13298
C         18.59729        20.77019         2.35642
C         17.33179        21.50196         2.72108
C         18.56867        23.66033         1.92324
C         17.31953        22.99653         2.43879
C         18.47311        24.89445         1.10754
C         17.20496        25.59354         1.07311
C         18.31337        27.49366        -0.06412
C         17.13666        26.82263         0.38749
C         18.27977        28.77174        -0.65075
C         17.02552        29.47398        -0.86692
C         18.22891        31.43642        -1.72029
C         16.97789        30.76382        -1.33835
C         18.21966        32.95295        -1.94940
C         16.94076        33.70433        -1.75374
C         18.21465        35.80405        -1.94816
C         16.95035        35.06101        -1.72340
C         18.24498        37.28815        -1.93859
C         17.05239        38.01866        -1.40207
C         18.29752        40.20983        -1.15463
C         17.01469        39.49453        -1.47131
C         18.28083        41.67800        -1.49287
C         17.03130        42.35632        -1.55264
C         18.27828        44.48187        -1.75725
C         17.05003        43.78107        -1.69618
C         18.26940        45.97233        -1.86324
C         16.98694        46.72101        -1.59438
C         18.29987        48.78316        -0.90219
C         17.07207        47.92836        -0.67934
C         18.28250        50.14592        -0.51255
C         17.02896        50.78789        -0.16607
C         18.24539        52.85652         0.39176
C         17.03224        52.10022         0.27541
C         18.24849        54.16102         0.90297
C         20.19306         6.98961        -1.64627
C         20.27774         8.19379        -0.92744
C         19.02495         8.95664        -0.84671
C         20.71523        10.60513         0.91511
C         18.72936         9.87846         0.13206
C         20.64767        11.95591         0.93310
C         19.37936        12.81416         0.78362
C         20.73982        14.86837         1.22882
C         19.51326        14.08450         1.65151
C         20.85362        16.26878         1.72948
C         19.62072        17.09748         1.36558
C         20.99832        18.80345         2.47711
C         19.74521        18.42433         2.09076
C         21.10661        21.00455         2.69137
C         19.88417        21.52732         2.45855
C         20.98085        23.27848         1.05264
C         19.85232        22.91770         1.95745
C         20.84373        24.61654         0.33753
C         19.62026        25.42832         0.55062
C         20.79232        27.38701        -0.54735
C         19.66254        26.91663         0.32933
C         20.76584        28.71316        -0.96549
C         19.51595        29.44680        -0.97952
C         20.73460        31.51847        -1.52412
C         19.50895        30.78068        -1.40486
C         20.70343        32.96696        -1.55552
C         19.50108        33.64484        -1.70661
C         20.72480        35.86379        -1.25928
C         19.45134        35.09527        -1.51129
C         20.80225        37.31547        -1.52740
C         19.55792        38.01860        -1.87378
C         20.81121        40.17109        -1.40560
C         19.53296        39.50536        -1.68797
C         20.78405        41.62227        -1.61487
C         19.49816        42.37442        -1.56921
C         20.83911        44.49506        -1.69744
C         19.52006        43.78524        -1.69972
C         20.85547        46.01012        -1.63637
C         19.54823        46.74785        -1.70773
C         20.73794        48.82957        -0.97191
C         19.51317        48.14552        -1.19248
C         20.71995        50.20685        -0.68501
C         19.49585        50.88382        -0.46251
C         20.67381        53.01550         0.04704
C         19.48891        52.26542        -0.01953
C         20.68259        54.34537         0.53434
C         19.44650        54.90681         1.01190
C         20.64028        56.91313         1.75098
C         19.45125        56.19435         1.60103
C         20.64922        58.11994         2.53575
C         22.35761         4.19786        -2.89208
C         21.21392         4.91436        -2.57395
C         22.61344         6.71698        -1.67052
C         21.32027         6.18785        -1.94667
C         22.71158         7.96804        -1.00857
C         21.58608         8.66078        -0.52053
C         23.07162        10.62769         0.14429
C         21.90039         9.76201         0.53586
C         23.13320        11.97710         0.35895
C         21.95114        12.67106         0.91469
C         23.17460        14.88417         0.45598
C         21.98255        14.15541         0.98316
C         23.24235        16.36181         0.71024
C         22.12805        17.01618         1.39777
C         23.42347        19.15915         1.62604
C         22.22830        18.30083         1.86080
C         23.51030        20.53902         1.81345
C         22.44899        21.57697         2.31691
C         23.42656        23.23696         0.62102
C         22.30142        22.70561         1.30305
C         23.29030        24.52320        -0.10234
C         22.10416        25.22406        -0.13527
C         23.26209        27.27927        -1.25930
C         21.96589        26.55206        -0.79267
C         23.20404        28.73589        -1.35217
C         21.98641        29.40299        -1.33302
C         23.19745        31.58367        -1.37605
C         21.96507        30.84256        -1.46026
C         23.15617        32.96626        -1.17871
C         21.93967        33.69745        -1.29788
C         23.18719        35.82907        -0.93341
C         21.97010        35.10040        -1.20270
C         23.17231        37.28757        -0.85309
C         21.97529        38.00670        -1.25795
C         23.23221        40.16518        -0.97367
C         21.99499        39.46499        -1.27375
C         23.27643        41.57408        -0.98100
C         22.10602        42.34225        -1.42668
C         23.20897        44.43915        -0.80199
C         22.06459        43.78930        -1.22196
C         23.22453        45.91464        -0.73346
C         21.99866        46.69024        -0.99331
C         22.99024        48.67939         0.05712
C         21.96526        48.06011        -0.76258
C         23.16906        50.16609         0.03086
C         21.99816        50.93419        -0.51653
C         23.20803        53.10156        -0.03185
C         21.93701        52.44931        -0.54188
C         23.16368        54.63160        -0.09579
C         21.88514        55.12800         0.58547
C         23.10343        57.16767         1.34064
C         21.85998        56.37723         1.20003
C         23.08945        58.39112         2.23816
C         21.81421        58.78120         2.87550
C         23.06182        60.33230         4.29566
C         21.85730        59.82905         3.85100
C         23.63664         4.71772        -2.62785
C         25.10792         6.52718        -1.80964
C         23.79613         5.98172        -2.03463
C         25.28576         7.82044        -1.33266
C         24.05547         8.60051        -1.04444
C         25.56973        10.50803        -0.24793
C         24.21433         9.96429        -0.50391
C         25.62333        11.97236         0.01550
C         24.36233        12.73339         0.17214
C         25.68202        14.83677         0.27490
C         24.42907        14.11509         0.28404
C         25.72306        16.23042         0.56307
C         24.54875        17.03019         0.81200
C         25.87819        19.05289         0.98067
C         24.60568        18.38788         1.15678
C         25.94900        20.44135         1.00486
C         24.82394        21.28744         1.54393
C         25.86464        22.97096        -0.09685
C         24.65884        22.56720         0.72316
C         25.84101        24.42695        -0.56252
C         24.52526        25.15228        -0.66589
C         25.72238        27.31082        -1.02406
C         24.54524        26.62525        -0.92883
C         25.76111        28.68772        -1.58557
C         24.45248        29.46240        -1.65934
C         25.67464        31.65150        -1.36787
C         24.47778        30.92613        -1.47447
C         25.68664        33.01876        -0.93782
C         24.35597        33.63684        -0.57843
C         25.52401        35.76681        -0.10647
C         24.36034        35.12357        -0.72609
C         25.42265        37.23169         0.20217
C         24.29281        37.98534        -0.39800
C         25.55201        40.13104        -0.19920
C         24.36830        39.42723        -0.51624
C         25.60822        41.54225        -0.23914
C         24.43553        42.28692        -0.56318
C         25.54974        44.39050         0.12915
C         24.40865        43.71749        -0.42354
C         25.43017        45.76511         0.82260
C         24.26899        46.54335         0.18264
C         25.70678        48.87306         1.06774
C         23.87453        47.84486         0.69591
C         25.62762        50.23063         0.73497
C         24.27097        50.93941         0.78913
C         25.65083        53.06872         0.22721
C         24.32933        52.39098         0.27623
C         25.68867        54.58407         0.27857
C         24.40976        55.26363         0.49456
C         25.61364        57.05493         1.68141
C         24.39267        56.46098         1.16012
C         25.57443        58.19827         2.47191
C         24.35558        58.82537         2.86469
C         24.30366        59.80836         3.84666
C         26.55917         8.46677        -1.25218
C         27.97480        10.48054        -0.78054
C         26.73734         9.79761        -0.82694
C         28.07520        11.86756        -0.46713
C         26.81325        12.70801        -0.54031
C         28.15392        14.66615         0.20913
C         26.91108        14.10172         0.02845
C         28.22968        16.06300         0.66759
C         26.99665        16.88956         0.62950
C         28.36077        18.95244         0.37045
C         27.06185        18.26680         0.72722
C         28.39145        20.40849         0.71345
C         27.20723        21.12285         0.80304
C         28.35680        23.25559         0.30366
C         27.19100        22.53862         0.50038
C         28.31671        24.63624        -0.17162
C         27.09173        25.22440        -0.46230
C         28.28517        27.47286        -0.68469
C         26.98968        26.68503        -0.57679
C         28.29942        28.86115        -1.19346
C         27.03233        29.48268        -1.60896
C         28.21073        31.73034        -1.22360
C         26.98026        31.01170        -1.60371
C         28.15785        33.02675        -0.76258
C         26.87119        33.70287        -0.64293
C         27.97708        35.73736         0.25587
C         26.84363        35.08313        -0.16448
C         27.92652        37.10121         0.93979
C         26.68026        37.94244         0.59614
C         28.05577        40.07843         0.17493
C         26.72519        39.40871         0.36451
C         27.96544        41.55428         0.50969
C         26.81513        42.25749         0.15301
C         27.89551        44.40689         0.99848
C         26.73535        43.68309         0.33716
C         27.93606        45.88708         0.69305
C         26.74155        46.58996         0.73080
C         28.02666        48.72012         0.48146
C         26.80025        48.03480         0.74556
C         28.05123        50.15191         0.44858
C         26.85139        50.89356         0.52541
C         28.18249        53.03781         0.42745
C         26.87570        52.37802         0.81026
C         28.22887        54.55267         0.31968
C         26.93542        55.21689         0.73340
C         26.87437        56.39628         1.41217
C         29.29359        12.50454        -0.25017
C         30.63220        14.52254         0.21230
C         29.38702        13.90550         0.05820
C         30.79225        15.94193         0.39487
C         29.57212        16.71151         0.75349
C         30.92709        18.89379         0.46391
C         29.63238        18.20871         0.75936
C         30.85209        20.36324         0.21704
C         29.67463        21.10501         0.73702
C         30.96838        23.36910         0.30759
C         29.66033        22.63539         0.62053
C         30.83549        24.67221        -0.43174
C         29.55598        25.36827        -0.41242
C         30.70309        27.39948        -1.30188
C         29.51762        26.69886        -0.78933
C         30.73770        28.86488        -1.18378
C         29.47929        29.56406        -1.24018
C         30.72022        31.68399        -0.86369
C         29.52230        31.04962        -1.54172
C         30.59891        33.00996        -0.31142
C         29.37911        33.67143        -0.27911
C         30.53759        35.74287         0.82411
C         29.23201        34.96757         0.42165
C         30.45971        37.20611         0.94094
C         29.23657        37.90138         0.82292
C         30.44405        40.09372         0.98078
C         29.21120        39.30987         0.78085
C         30.46791        41.50825         0.39926
C         29.19647        42.23233         1.01574
C         30.41687        44.39398         0.69191
C         29.21258        43.71219         0.80692
C         30.42180        45.83283         0.57539
C         29.20100        46.56140         0.56022
C         30.48646        48.68239         0.29006
C         29.23715        47.97939         0.40919
C         30.48278        50.11469         0.20101
C         29.30993        50.84258         0.29370
C         29.30324        52.29859         0.23279
C         32.00377        16.57847         0.26938
C         33.44420        18.71357         0.33738
C         32.12532        18.05548        -0.06354
C         33.74137        19.96405        -0.18231
C         31.84670        21.07548        -0.38962
C         33.28434        23.03853        -0.58304
C         32.03878        22.48952        -0.32392
C         33.24652        24.44088        -1.18420
C         31.99716        25.24853        -0.87396
C         33.25777        27.44390        -1.24906
C         32.01615        26.64559        -1.35628
C         33.20049        28.83433        -1.25119
C         31.94981        29.55199        -1.17534
C         33.16475        31.64430        -0.47664
C         31.91646        30.97757        -0.84707
C         33.09599        32.96885        -0.00622
C         31.79060        33.56610         0.45541
C         33.01156        35.85266         0.50275
C         31.80514        35.08174         0.52487
C         32.99038        37.25221         0.76338
C         31.75686        37.87878         1.36046
C         33.00375        40.14562         0.94056
C         31.74627        39.39838         1.22181
C         32.95597        41.57846         0.83147
C         31.72214        42.27388         0.75965
C         32.91905        44.41451         0.67852
C         31.68437        43.67523         0.70775
C         32.88265        45.82282         0.54891
C         31.66893        46.53864         0.47449
C         31.67922        47.95199         0.32447
C         34.68859        20.97199         0.12434
C         35.70110        23.14021        -0.17909
C         34.56069        22.34474        -0.31890
C         35.79261        24.54753        -0.59113
C         34.53171        25.25375        -1.08706
C         35.70097        27.42315        -0.89730
C         34.50635        26.73270        -1.05674
C         35.75635        28.86959        -1.23472
C         34.44837        29.65839        -1.49057
C         35.63028        31.77600        -0.72202
C         34.39714        30.99654        -0.75974
C         35.64921        33.08249        -0.02116
C         34.31190        33.72383         0.30527
C         35.50956        35.93549         0.14654
C         34.27156        35.18271         0.36399
C         35.48725        37.41850         0.39160
C         34.27437        37.97449         1.10568
C         35.45545        40.20871         0.83769
C         34.21493        39.47793         0.91170
C         35.42289        41.60640         0.82223
C         34.19027        42.31508         0.80553
C         34.14964        43.72191         0.72182
C         36.87905        25.40099        -0.12130
C         38.06227        27.53621        -0.04929
C         36.89526        26.76093        -0.39970
C         38.15657        28.90002        -0.25107
C         37.03899        29.60440        -0.93551
C         38.17042        31.79533        -0.26327
C         37.00813        31.09653        -0.82863
C         38.13404        33.19221        -0.09918
C         36.88370        33.89641        -0.10764
C         38.04067        36.02401         0.26929
C         36.82633        35.26608         0.08585
C         37.99237        37.41514         0.50294
C         36.77625        38.13204         0.59851
C         36.71057        39.50609         0.80392
C         39.31419        29.65241         0.11321
C         40.53818        31.80195         0.39883
C         39.34841        31.05246         0.07165
C         40.54474        33.16864         0.40951
C         39.33424        33.92537         0.20228
C         39.27600        35.31335         0.33253
O         18.93300        46.56170        -3.02401
O         30.46250        18.68599         1.84865
O         25.83482        53.83639        -1.00054
O         31.23715        26.88745        -2.57237
O         21.61482        41.98328        -2.76793
O         22.41248        26.54658        -2.18409
O         29.70529        34.98335         1.78648
O         29.77937        21.97836         1.92320
O         14.95805        35.93726        -2.91598
O         19.57755        38.94623        -3.02757
O         19.59420         9.85008         1.24745
O         25.22674        45.45457         2.17621
O         21.18254        19.81658         3.42307
O         31.00846        40.01196         2.33945
O         14.88631        43.97021        -2.91242
O         35.29047        36.95386        -0.95536
O         27.57277        27.37281         0.60434
O         18.16407        36.55731        -3.20564
O         23.07489        58.51030         0.76915
O         24.61597        48.33772         1.76444
O         25.08903        36.24622         1.24255
O         13.04715        31.77356         0.67587
O         22.30903        13.32157         2.20400
O         25.13209        24.49978        -1.85350
O         21.15722        45.31305        -2.87869
O         10.11646        28.56243        -1.04843
O         12.39961        32.46394        -2.77806
O         25.06597        28.85814        -2.85524
O         14.85756        22.53295         4.06285
O         25.83921        11.01643         1.10019
O         15.62629        27.51344        -1.41833
O         20.57330        23.34060        -0.35479
O         26.43968        38.89652         1.70403
O         12.17780        39.08286         0.26326
O         16.84926        17.99798         0.81739
O         26.71377        52.40324         2.22463
O         18.20871        32.03079        -3.06917
O         16.15877        46.81434        -2.77479
O         35.51401        24.75198        -2.04740
O         16.77544        37.44743        -0.01741
O         35.15375        33.04091         1.34282
O         30.44585        41.48034        -0.98157
O         18.53259        20.26074         0.96649
O         27.14783        30.25309        -2.85318
O         23.98962         9.79620        -1.95636
O         19.56850        23.89825         3.00876
O         24.42760        46.55340        -1.27558
O         32.81640        20.41724        -1.16433
O         22.89022        15.81806        -0.62646
O         36.40698        31.76999        -1.97009
O         23.09992        50.51668        -1.39818
O         28.93521        16.19434         1.97113
O         19.80152        35.52219        -0.13741
O         17.48916        22.46856         3.79480
O         36.76179        29.11481        -2.28596
O         19.57233        17.30353        -0.05313
H         18.73972        17.79192        -0.24848
O         19.67749        13.62429         3.01908
H         19.81232        14.42287         3.57876
O         21.87747        52.78859        -1.95759
H         22.54104        52.22089        -2.40995
O         29.28641        42.02033         2.45035
H         28.65587        42.66352         2.86198
O         27.59788        44.27471         2.43390
H         26.68167        44.71332         2.56256
O         31.53700        23.76659         1.59311
H         31.20414        23.11750         2.25968
O         22.31510         9.01143         1.71613
H         21.49797         8.68311         2.14948
O         22.93851        22.17496         3.56701
H         22.77182        21.52585         4.28460
O         14.92871        26.47868         3.04780
H         15.03750        25.78905         3.73806
O         25.38259        21.74733         2.82199
H         24.65725        22.21418         3.31031
O         33.07627        24.13746        -2.60566
H         33.98153        24.07906        -2.99348
O         19.96677        27.48777         1.66426
H         19.31464        27.12116         2.30033
O         14.76521        38.77949        -3.17033
H         14.67318        37.79033        -3.17787
O         19.45328        13.29716        -0.58806
H         19.25108        12.55412        -1.19470
O         23.11023        55.07089        -1.47465
H         23.90389        54.70508        -1.92268
O         14.46999        33.53409        -3.47906
H         13.56332        33.17940        -3.74479
O         28.29432        40.05730        -1.26273
H         29.14375        40.60053        -1.41546
O          9.53360        30.87248        -2.02086
H          9.94552        30.01847        -2.29127
O         12.35558        18.70732         2.56497
H         12.45188        18.75785         1.59199
O         34.52994        37.73775         2.52761
H         33.64754        37.72010         2.98178
O         23.88164        51.04144         2.17455
H         24.65745        51.41759         2.65429
O         14.59933        42.37001         0.40116
H         14.45049        41.46340         0.74938
O         15.47125        33.11850         0.00107
H         16.16281        32.60598         0.46893
O         28.47881        54.89980        -1.05717
H         27.70032        54.58832        -1.57272
O         31.98537        18.01279        -1.50791
H         32.26359        18.89278        -1.86251
O         20.82093        16.14065         3.20041
H         21.59970        15.60231         3.46420
O         26.50951        12.86646        -1.96351
H         27.23724        13.37733        -2.37597
O         17.27634        47.32662         0.65127
H         17.27726        48.05377         1.30998
O         34.40896        29.99215        -2.90123
H         35.33793        30.19630        -3.16760
O         18.48641        40.12610         0.30602
H         17.68057        40.48467         0.73497
O         24.20504        33.39167         0.87755
H         24.49207        34.19942         1.36120
O         31.82028        37.60774         2.81738
H         31.28599        38.32211         3.24413
O         28.39945        18.91020        -1.10827
H         27.60481        19.37870        -1.44525
O          9.86599        27.51549         3.16018
H         10.70909        27.14742         3.50369
O         10.88443        44.36860        -1.47988
H         11.09666        44.48630        -2.42887
O         25.76249        22.12524        -1.29326
H         25.26113        22.65666        -1.96116
O         15.55776        31.17628        -3.15712
H         15.21692        31.99525        -3.60512
O         29.72957        31.21754        -2.97572
H         28.93578        30.83412        -3.42135
O         12.74088        40.20097        -3.23905
H         13.45955        39.81881        -3.80311
O         10.50251        31.84097         1.35599
H         11.33933        32.16945         1.75696
O         27.81701        36.79056         2.34908
H         27.37202        37.55595         2.77993
O         31.61522        33.06425         1.83215
H         30.87960        33.58980         2.23373
O         14.60055        38.64048         0.46659
H         15.43294        38.29683         0.87486
O         16.40992        16.23132         4.00707
H         15.77192        15.63187         4.44843
H          4.93193        31.21134         0.52846
H          4.91224        33.66566         0.23561
H          7.52770        27.29379         1.74896
H          6.19531        29.15422         0.88179
H          6.11942        35.77161        -0.18559
H          7.34022        37.90967        -0.64631
H         10.13814        22.95467         2.33562
H          8.83671        25.03990         2.01716
H          8.57329        40.00580        -1.13419
H          9.87752        42.17876        -1.38704
H         13.37894        19.18689         4.27701
H         11.41088        20.91230         2.69342
H         11.77529        43.72113         0.25303
H         12.38975        46.33720        -0.50697
H         14.84969        14.53073         1.99565
H         13.76566        16.74018         2.79865
H         13.62878        48.42457        -0.27484
H         14.84914        50.57014        -0.12062
H         16.73676        10.72827        -0.20491
H         15.89708        12.49577         1.15687
H         16.08319        52.58136         0.55634
H         17.30377        54.61463         1.23813
H         19.20036         6.63901        -1.96656
H         18.31484         8.80915        -1.67480
H         18.51087        56.61064         1.99183
H         19.69685        58.44867         2.97929
H         22.26783         3.21046        -3.36629
H         20.21916         4.50187        -2.79506
H         23.06934        61.12322         5.05890
H         20.91188        60.20403         4.26912
H         24.52745         4.13382        -2.90085
H         25.98283         5.91565        -2.07857
H         26.51647        58.58627         2.88852
H         25.23627        60.16976         4.30331
H         27.44027         7.90218        -1.59633
H         28.90179         9.92192        -0.98696
H         29.08050        54.96077         0.92074
H         27.79832        56.87663         1.76872
H         30.22362        11.91541        -0.27769
H         31.53960        13.91586         0.06610
H         31.44511        50.63633         0.09256
H         30.25868        52.80248         0.01641
H         32.89269        15.96602         0.04614
H         34.05296        18.27791         1.14207
H         33.83243        46.37753         0.49403
H         32.64487        48.47470         0.26332
H         35.59978        20.70755         0.68231
H         36.61488        22.68165         0.22980
H         36.36627        42.17195         0.79854
H         35.09039        44.28988         0.66886
H         37.72186        24.94299         0.41738
H         38.90471        27.00567         0.41945
H         38.93705        37.95687         0.66176
H         37.64082        40.09092         0.86882
H         40.20313        29.10587         0.46160
H         41.46016        31.24408         0.61783
H         41.47245        33.71415         0.63579
H         40.19746        35.87599         0.54451
