         429
 CSIRO Nanostructure Databank - Neutral Graphene Oxide Data Set
C          1.31162         2.57039        -2.09744
C          1.18922         3.77089        -1.45768
C          2.40338         1.68624        -1.86670
C          2.06923         4.11895        -0.28530
C          1.07286         6.40236         0.02229
C          1.09675         7.79961         0.31833
C          2.21095         5.62624        -0.05507
C          2.27200         8.45844         0.61297
C          1.17505        10.41987         1.57594
C          1.21144        11.67060         2.16562
C          2.35025         9.85010         1.04838
C          2.40326        12.40827         2.12725
C          1.28379        15.47973         1.98596
C          1.29714        16.73782         1.35660
C          2.44641        14.72382         2.05210
C          2.51831        17.28883         0.99274
C          2.60729        18.63803         0.44841
C          3.50114         2.09118        -1.09140
C          3.40617         3.36980        -0.34637
C          4.72651         1.39084        -1.11017
C          4.72384         4.10412        -0.12702
C          3.49636         6.25956         0.11887
C          3.52039         7.68669         0.55437
C          4.69221         5.57843        -0.01212
C          4.79628         8.48825         0.52602
C          3.57417        10.60747         1.04902
C          3.57222        11.97066         1.48455
C          4.81377         9.96532         0.66504
C          4.83881        12.80139         1.49857
C          3.68896        15.12797         1.47504
C          3.72614        16.51832         1.12902
C          4.87413        14.31266         1.35778
C          4.97181        17.16862         1.00253
C          3.77803        19.30091         0.45823
C          4.96024        18.67235         1.14717
C          5.96316         2.03790        -0.82250
C          5.95307         3.41642        -0.53030
C          7.22689         1.32991        -0.91681
C          7.22231         4.14449        -0.45877
C          5.93000         6.34646        -0.28946
C          5.96937         7.83523        -0.10834
C          7.24108         5.63591        -0.29624
C          7.25807         8.54670        -0.04663
C          6.03903        10.62942         0.63626
C          6.10032        12.05885         1.07638
C          7.26553         9.93375         0.27343
C          7.31962        12.83839         0.76521
C          6.09721        14.96524         1.04206
C          6.15775        16.41261         0.96391
C          7.34267        14.23025         0.82447
C          7.40514        17.11066         0.78020
C          6.26512        19.31075         0.83243
C          7.43340        18.56756         0.75341
C          8.44833         1.98852        -0.94928
C          8.42562         3.46619        -1.01391
C          9.72821         1.36010        -1.04839
C          9.70253         4.25224        -1.07443
C          8.46467         6.41990        -0.60537
C          8.42252         7.83170        -0.41547
C          9.67651         5.71118        -0.80285
C          9.64857         8.60879        -0.61931
C          8.52239        10.63523         0.26747
C          8.56419        12.05957         0.67601
C          9.69885        10.00498        -0.14685
C          9.85922        12.82540         0.44770
C          8.58539        14.96127         0.56610
C          8.60317        16.39919         0.55779
C          9.79682        14.28868         0.30758
C          9.81980        17.10639         0.25546
C          8.67597        19.24957         0.63613
C          9.87390        18.56425         0.34844
C         10.92673         2.07481        -1.03956
C         10.96935         3.49807        -0.96116
C         12.22725         1.30829        -1.17158
C         12.17095         4.20186        -0.70077
C         10.93040         6.35971        -0.74790
C         10.94860         7.82925        -0.77421
C         12.13342         5.62591        -0.63550
C         12.19895         8.54633        -0.51463
C         10.97067        10.68792        -0.23938
C         11.02596        12.10956        -0.07702
C         12.16387         9.96786        -0.47042
C         12.22940        12.83434        -0.21337
C         10.99538        14.98810        -0.03160
C         10.97616        16.41086        -0.10772
C         12.23960        14.26903        -0.15407
C         12.19077        17.14157        -0.55758
C         11.05751        19.27247         0.13005
C         12.23371        18.67264        -0.57924
C         13.47217         2.07428        -0.76532
C         13.43398         3.48741        -0.54458
C         14.66911         1.38344        -0.65880
C         14.63561         4.15637        -0.20370
C         13.34325         6.35721        -0.20944
C         13.38549         7.82093        -0.39864
C         14.59195         5.59917         0.14748
C         14.63968         8.51232        -0.29069
C         13.45807        10.68330        -0.70592
C         13.47056        12.13278        -0.30045
C         14.65672         9.88291        -0.28199
C         14.66210        12.82179        -0.13429
C         13.47932        14.95135        -0.21050
C         13.49360        16.40016        -0.47514
C         14.70607        14.24943        -0.12475
C         14.75190        17.13920        -0.32316
C         13.55136        19.25639        -0.12291
C         14.77133        18.55095        -0.16040
C         15.90258         2.04815        -0.38265
C         15.87293         3.46353        -0.16786
C         17.13431         1.34923        -0.33629
C         17.12499         4.15361         0.05000
C         15.89825         6.38104         0.38672
C         15.90489         7.69750        -0.42203
C         17.15861         5.58722         0.11225
C         17.15744         8.49602        -0.16879
C         15.89464        10.59605         0.06377
C         15.91275        12.08219         0.11719
C         17.15400         9.84447        -0.06183
C         17.19858        12.80937         0.10020
C         15.97698        14.92736        -0.13368
C         15.99432        16.37459        -0.41793
C         17.19660        14.24640         0.05196
C         17.31438        17.12286        -0.34629
C         16.04159        19.22868         0.00865
C         17.27858        18.57808        -0.05746
C         18.35981         2.01854        -0.11643
C         18.33281         3.43420         0.06448
C         19.61964         1.32178        -0.06932
C         19.62018         4.12473         0.44195
C         18.38355         6.27176         0.04205
C         18.46018         7.74416        -0.28684
C         19.61684         5.60680         0.17581
C         19.54762         8.39282         0.54449
C         18.44439        10.61747        -0.09337
C         18.36645        12.09160         0.24103
C         19.48795         9.87109         0.70314
C         19.60389        12.77727         0.50873
C         18.47825        14.92688         0.07612
C         18.54700        16.36448        -0.05585
C         19.66563        14.19796         0.29889
C         19.75200        17.07820         0.01261
C         18.52776        19.23480         0.09320
C         19.76218        18.53182         0.02699
C         20.85402         1.98822        -0.03452
C         20.83348         3.49189        -0.22959
C         22.09195         1.32566         0.04210
C         22.11046         4.19516         0.19074
C         20.85995         6.30573         0.32537
C         20.85310         7.70870         0.59485
C         22.09063         5.59188         0.41891
C         22.03139         8.44767         0.87830
C         20.72157        10.58773         1.04179
C         20.66530        12.00875         1.04643
C         21.87651         9.82645         1.25153
C         22.58156        13.14341         0.65533
C         20.91340        14.87610        -0.25741
C         21.00666        16.37233        -0.01437
C         22.26449        14.21716        -0.11291
C         22.20998        17.04539        -0.13696
C         21.00742        19.19642        -0.04200
C         22.24083        18.49496        -0.17394
C         23.33798         2.02798         0.10529
C         23.30548         3.46979         0.18319
C         24.56405         1.33470         0.21067
C         24.56083         4.23041         0.16269
C         23.32366         6.31067         0.95467
C         23.33486         7.82380         0.75084
C         24.58367         5.64792         0.48668
C         24.55556         8.49871         0.47909
C         23.73648        10.92938         0.65710
C         23.68061        12.25656         0.30440
C         24.60171         9.93110         0.02376
C         24.71064        12.79926        -0.53913
C         23.38445        14.93321        -0.82942
C         23.52814        16.29450        -0.13434
C         24.68705        14.18403        -0.80945
C         24.71400        17.04688        -0.69175
C         23.47002        19.15900        -0.37603
C         24.70136        18.46922        -0.66620
C         25.82851         1.98618         0.39984
C         25.87544         3.45759         0.21617
C         26.99247         1.32263         0.72027
C         27.06868         4.22037         0.61949
C         25.79759         6.34972         0.47375
C         25.78791         7.79615         0.38698
C         27.02721         5.62584         0.57811
C         27.04716         8.48188         0.13136
C         25.84598        10.52913        -0.69079
C         25.82871        12.01449        -0.89124
C         27.12018         9.78902        -0.44467
C         26.84220        12.72662        -1.54736
C         25.87101        14.87506        -1.11419
C         25.88161        16.33696        -1.06779
C         27.02098        14.11679        -1.43602
C         27.09221        17.01493        -1.30700
C         25.91338        19.14703        -0.93840
C         27.12047        18.44186        -1.19009
C         28.25670         2.03255         1.14641
C         28.26572         3.51005         0.85105
C         29.53875         1.33963         0.74837
C         29.50968         4.20963         0.74813
C         28.24397         6.39379         1.00487
C         28.25762         7.80181         0.45918
C         29.51997         5.64151         0.70942
C         29.48051         8.49072         0.48137
C         28.39283        10.44658        -0.48673
C         28.65444        11.70256        -1.17348
C         29.51716         9.85547         0.12421
C         29.63975        12.62081        -0.87565
C         28.35880        14.74061        -1.65551
C         28.35449        16.27950        -1.58816
C         29.62683        14.03097        -1.27892
C         29.61889        16.96535        -1.26631
C         28.36597        19.11619        -1.32320
C         29.60805        18.42461        -1.27940
C         30.72270         2.03111         0.53093
C         30.69677         3.47665         0.50682
C         32.00348         1.34672         0.44370
C         31.88483         4.21244         0.09410
C         30.72789         6.34797         0.57908
C         30.74922         7.78824         0.63520
C         31.94734         5.65709         0.32089
C         31.95339         8.47759         0.55374
C         30.71255        10.67282         0.41537
C         30.75201        12.10546        -0.04204
C         32.00585         9.95897         0.82364
C         32.06098        12.76282        -0.17611
C         30.79321        14.78326        -1.10363
C         30.79145        16.22800        -1.12114
C         32.11405        14.03620        -0.99615
C         32.04550        16.95665        -0.81051
C         30.81478        19.13417        -1.31334
C         32.06832        18.48283        -0.94946
C         33.21291         2.00537         0.28396
C         33.21476         3.44390        -0.04649
C         34.50053         1.38050         0.37577
C         34.44498         4.21819         0.04926
C         33.15935         6.35064         0.17191
C         33.17278         7.78495         0.29176
C         34.39922         5.62506         0.00713
C         34.34981         8.50440        -0.03925
C         33.25659        10.65513         0.31968
C         33.21513        12.08957         0.13700
C         34.44065         9.95994         0.06790
C         34.47990        12.85944         0.36090
C         33.34208        14.85732        -0.67538
C         33.34462        16.25801        -0.83744
C         34.52501        14.20712        -0.31069
C         34.55527        16.98780        -0.78334
C         33.37674        19.10390        -1.21220
C         34.54579        18.41612        -1.07041
C         35.69520         2.09185         0.25936
C         35.70822         3.54271         0.10795
C         36.96064         1.41114         0.25657
C         36.90569         4.25293        -0.01403
C         35.58479         6.36001        -0.27966
C         35.40649         7.70918        -0.55491
C         36.93740         5.69540        -0.51145
C         37.26281         8.78675        -0.37999
C         35.72718        10.69201         0.05026
C         35.74083        12.06604         0.20838
C         37.02220        10.01184         0.16087
C         36.96436        12.82553         0.41366
C         35.74909        14.91846        -0.21925
C         35.77803        16.30970        -0.50928
C         36.92699        14.22609         0.24764
C         37.02167        17.04683        -0.39703
C         35.86245        19.09967        -1.37815
C         37.06476        18.43378        -0.74428
C         38.14969         2.09351         0.12704
C         38.15864         3.54979         0.05037
C         39.43025         1.40696         0.19030
C         39.34963         4.25219         0.12117
C         38.15688         6.48734         0.03359
C         38.28890         7.85986         0.07186
C         39.30568         5.67986         0.61596
C         39.48386         8.54237         0.56499
C         38.12878        10.64964         0.96379
C         38.18684        12.14301         0.72008
C         39.45878         9.93988         0.75560
C         39.40075        12.81822         0.85364
C         38.09264        15.03270         0.59957
C         38.17363        16.42386         0.12370
C         39.41043        14.29017         0.92798
C         39.40258        17.13130         0.24346
C         38.22886        19.15119        -0.55054
C         39.41807        18.52670        -0.07034
C         40.59774         2.07580         0.10304
C         40.65451         3.55923        -0.16735
C         41.82888         4.23172         0.48190
C         40.64935         6.38051         0.59034
C         40.70144         7.79584         0.67872
C         41.81919         5.56901         0.73928
C         41.90680         8.54106         0.85698
C         40.67348        10.65932         0.89376
C         40.66105        12.11739         0.90656
C         41.88949         9.91785         0.92517
C         41.83955        12.87396         0.86321
C         40.66995        15.02574         0.75962
C         40.63014        16.47103         0.60518
C         41.84304        14.27910         0.73932
C         41.79545        17.24520         0.72421
C         40.62026        19.26212         0.07079
C         41.78309        18.62615         0.48088
O          4.36111         7.83927         1.76615
O         30.38800        11.77382         1.35642
O         21.71203        12.68206         1.65699
O          8.90003         3.96352        -2.30531
O         27.80795        11.99917        -2.24465
O         31.95935        17.81689         0.37330
O         28.42376        15.54839        -2.87061
O         16.75265        16.74649        -1.64934
O         19.03428         8.99010         1.78356
O         23.00356        10.48340         1.76347
O          9.47902        12.33801         1.79299
O         15.78404        11.28586         1.38136
O         10.25212         8.39863        -1.94394
O         36.37826         8.31952        -1.36024
O         38.54892        14.83791         1.98126
O          5.75401        12.26417         2.50624
O          2.38712        13.58894         2.85899
O         12.77820        16.63029        -1.79979
O         13.64041         5.92378         1.21988
O         24.74290         9.93722        -1.44042
O         32.40633         3.78505        -1.21774
O          5.73276         7.24964        -1.44419
O         25.34923         3.90272        -1.05852
O          7.43242         4.77027         0.87539
O          4.02836         3.36161         0.96453
O         32.36078        13.52936        -2.36570
H         32.01806        14.19227        -3.00234
O         15.97618         6.71880         1.78527
H         15.05437         6.67843         2.13992
O          4.75626        18.92314         2.59794
H          5.48923        18.47710         3.07391
O         23.85788        15.99856         1.25602
H         23.95306        16.85098         1.73048
O         28.24972         1.93942         2.63546
H         28.99834         2.48150         2.96531
O         12.11113        19.10325        -1.97906
H         12.48429        18.36774        -2.52272
O         34.40312        13.18818         1.80149
H         35.27365        13.55815         2.06608
O         28.16096         6.51271         2.47517
H         28.90745         7.07972         2.76504
O         23.29244         6.10682         2.42277
H         22.48057         6.54311         2.76000
O         13.59557        10.73567        -2.19914
H         12.73174        11.03157        -2.56050
O         23.10484        15.21325        -2.23018
H         23.27513        14.39742        -2.74641
O         20.68259         3.72681        -1.65685
H         21.46698         3.35186        -2.10955
O         35.80894        20.48822        -1.04348
H         35.64758        20.56410        -0.08079
O         40.86881         3.69869        -1.62484
H         40.06686         3.35110        -2.07109
O         18.91614        10.61152        -1.47873
H         18.97920         9.66609        -1.77605
O          1.38242         3.59806         0.89251
H          2.06827         3.50994         1.59328
O         38.98620         5.54276         2.06087
H         38.99099         6.44614         2.44504
O         12.15858         0.06202        -0.46687
H         12.08454         0.25488         0.49012
O         19.79103         3.95057         1.88088
H         19.02694         4.37073         2.32943
O         15.96479         7.28348        -1.82897
H         15.67378         8.04254        -2.37960
O         37.80839        10.48023         2.38506
H         38.41920        11.05040         2.89820
O         37.15243         5.60703        -1.95388
H         37.02430         6.51529        -2.31079
O         18.87910         7.83634        -1.68821
H         18.16796         7.41014        -2.21975
O         32.10448        10.06681         2.27634
H         31.76823        10.96502         2.50826
O         20.59104        14.78055        -1.69235
H         21.33548        15.21189        -2.18443
H          0.57510         2.29100        -2.86538
H          0.35071         4.43873        -1.70269
H          2.45749         0.74083        -2.42479
H          0.09247         5.93266        -0.14078
H          0.13656         8.33374         0.32299
H          0.24604         9.83670         1.60713
H          0.33735        12.08323         2.68437
H          0.36607        15.09314         2.44724
H          0.36977        17.31737         1.25133
H          1.69367        19.09579         0.04006
H          4.75009         0.37837        -1.54044
H          3.86591        20.32366         0.06460
H          7.19957         0.23133        -0.96921
H          6.32120        20.40970         0.82515
H          9.77859         0.26164        -1.09130
H          8.68134        20.34862         0.68086
H         12.34183         1.03877        -2.26053
H         11.04254        20.36742         0.24384
H         14.67284         0.29482        -0.81744
H         13.58067        20.34713         0.02458
H         17.13462         0.26069        -0.49727
H         16.02189        20.31499         0.18385
H         19.60474         0.22048        -0.06939
H         18.54351        20.32941         0.20844
H         22.10720         0.22568         0.09468
H         21.02167        20.29707        -0.06052
H         24.54044         0.23482         0.24561
H         23.47989        20.25953        -0.38499
H         26.97439         0.22790         0.83758
H         25.93861        20.24619        -0.89922
H         29.56078         0.24117         0.81806
H         28.37845        20.21618        -1.32201
H         32.00744         0.25993         0.61926
H         30.80823        20.21344        -1.52622
H         34.54528         0.28943         0.51629
H         33.40502        20.15772        -1.52926
H         36.97065         0.31569         0.36430
H         36.01007        19.05320        -2.49628
H         39.42222         0.31579         0.33643
H         38.24821        20.22318        -0.79702
H         41.55329         1.53107         0.14423
H         42.75073         3.64873         0.62390
H         42.75231         6.04630         1.07617
H         42.87015         8.01791         0.92461
H         42.84571        10.44648         1.03811
H         42.81336        12.36660         0.86795
H         42.81341        14.78276         0.62673
H         42.73971        16.76939         1.02271
H         40.62384        20.33786        -0.15539
H         42.71218        19.20169         0.59545
