         344
 CSIRO Nanostructure Databank - Neutral Graphene Oxide Data Set
C          1.27098         3.50686        -1.04140
C          0.09692         4.21284        -1.06083
C          1.25851         6.37986        -1.15002
C          0.08943         5.63926        -1.07808
C          1.27674         7.81181        -1.03904
C          0.05576         8.57792        -1.18603
C          1.28298        10.75622        -1.04429
C          0.03256         9.92918        -1.16291
C          1.11494        11.97777        -0.10991
C         -0.10214        12.83482        -0.34028
C          1.20818        14.95488        -0.53276
C         -0.07360        14.17115        -0.41030
C          1.17066        16.40532        -0.08103
C         -0.02060        17.15443        -0.16189
C          1.18843        19.25512         0.14484
C         -0.02304        18.53168        -0.01185
C          1.21047        20.68668         0.23027
C          0.02628        21.50540         0.03839
C          1.23908        23.48226         0.91724
C          0.03775        22.84032         0.26585
C          1.27085        24.99166         0.86317
C          0.10247        25.72591         1.23850
C          1.42178        27.81601         1.47464
C          0.11992        27.07793         1.43474
C          1.36772        29.27457         1.07264
C          3.72041         3.50588        -1.03895
C          2.54255         4.18211        -1.13094
C          3.76668         6.34729        -0.83317
C          2.56303         5.66940        -1.45536
C          3.70058         7.75964        -0.48299
C          2.47926         8.49894        -0.71847
C          3.60352        10.60758        -0.11259
C          2.47784         9.92420        -0.58442
C          3.58639        12.02378         0.01726
C          2.40497        12.77970        -0.08865
C          3.58519        14.92214         0.28646
C          2.40465        14.19245        -0.00563
C          3.61814        16.32881         0.33147
C          2.38999        17.08146         0.16972
C          3.65760        19.21293         0.30004
C          2.41063        18.51338         0.22877
C          3.66634        20.61064         0.32978
C          2.45539        21.35334         0.37736
C          3.69534        23.49143         0.19437
C          2.50794        22.78823         0.48085
C          3.54077        24.95433        -0.21965
C          2.47389        25.69140         0.58625
C          3.77264        27.82270         0.63037
C          2.51352        27.07398         0.75410
C          3.74484        29.29363         0.42157
C          2.46430        29.95285         0.67013
C          6.22454         3.48087        -0.76773
C          5.02282         4.23679        -1.24851
C          6.07565         6.22343         0.09058
C          4.92396         5.63953        -0.68765
C          6.11402         7.72567         0.02688
C          4.87103         8.41514        -0.07392
C          6.13706        10.56324         0.18613
C          4.81946         9.84751         0.37761
C          6.08606        12.03367        -0.13279
C          4.84695        12.69269         0.47804
C          6.07201        14.83722         0.93771
C          4.90531        14.19558         0.18388
C          6.07190        16.32482         0.71204
C          4.88312        17.02356         0.55255
C          6.10657        19.16609         0.49849
C          4.91077        18.47722         0.45789
C          6.16408        20.58014        -0.02697
C          4.96048        21.37039         0.49683
C          6.15941        23.46846        -0.32495
C          4.89616        22.79353        -0.03568
C          6.22600        24.96365        -0.31478
C          4.90830        25.68098        -0.24760
C          6.19212        27.80659        -0.20993
C          4.99607        27.08227         0.23261
C          6.04685        29.22270        -0.65445
C          4.83045        29.93572        -0.08540
C          8.64468         3.44500        -0.33187
C          7.40369         4.14314        -0.41206
C          8.59154         6.27279        -0.02811
C          7.39603         5.56235        -0.17213
C          8.58766         7.71574         0.11153
C          7.33327         8.41308         0.14693
C          8.59682        10.57073         0.05857
C          7.33301         9.86931         0.13978
C          8.59096        12.04543        -0.06276
C          7.34565        12.79757         0.20216
C          8.61378        14.87878         0.62343
C          7.36377        14.13284         0.52572
C          8.62025        16.27955         0.86760
C          7.33309        16.99394         1.03352
C          8.63863        19.19148         0.75550
C          7.34462        18.51537         0.91812
C          8.63422        20.61423         0.62618
C          7.43896        21.31347         0.33985
C          8.61377        23.56237         0.52302
C          7.47590        22.73385         0.01568
C          8.69054        25.04135         0.29858
C          7.48247        25.69510         0.02551
C          8.61558        27.91108        -0.04975
C          7.42774        27.14029        -0.12048
C          8.53284        29.32315        -0.29687
C          7.34271        29.96272        -0.54503
C         11.10030         3.44826        -0.12110
C          9.85287         4.13813        -0.16443
C         11.06251         6.28732         0.05225
C          9.84222         5.57285        -0.06007
C         11.05658         7.72108         0.12387
C          9.80803         8.42843         0.12612
C         11.07786        10.58375         0.18359
C          9.80988         9.87770         0.10897
C         11.11949        12.00010         0.30487
C          9.88675        12.78059         0.10671
C         11.06363        14.88363         0.68357
C          9.85610        14.20439         0.49616
C         11.08086        16.29782         0.82408
C          9.83351        17.00518         0.89047
C         11.07914        19.17244         0.84485
C          9.84559        18.46854         0.86719
C         11.08960        20.58972         0.76745
C          9.87777        21.30693         0.69860
C         11.13696        23.49818         0.78062
C          9.87111        22.76906         0.82960
C         11.10890        24.94100         0.77897
C          9.94197        25.73493         0.51510
C         11.05871        28.02375        -0.29022
C          9.90989        27.32563         0.47842
C         10.99861        29.38419        -0.74036
C          9.79068        30.15388        -0.24338
C         13.56106         3.44641         0.03772
C         12.30416         4.13898         0.00397
C         13.52401         6.28654         0.18141
C         12.29979         5.57837         0.07798
C         13.52495         7.71261         0.23500
C         12.28787         8.42436         0.19617
C         13.53812        10.56129         0.33867
C         12.29832         9.86141         0.25155
C         13.55102        11.98082         0.45287
C         12.32309        12.68152         0.50622
C         13.57454        14.86919         0.48345
C         12.34283        14.12660         0.92917
C         13.54771        16.29258         0.52236
C         12.33572        16.98568         0.79643
C         13.58021        19.17687         0.60423
C         12.37154        18.45107         1.14440
C         13.56210        20.58045         0.58138
C         12.34295        21.32381         0.74763
C         13.66577        23.44530         0.87438
C         12.33249        22.74623         0.74883
C         13.61976        24.90840         0.51437
C         12.43881        25.52080         0.87743
C         13.46507        27.52758        -0.84182
C         12.32286        27.47839        -0.04998
C         13.38403        29.54659        -1.48224
C         12.11621        30.12641        -1.14810
C         16.02324         3.42341         0.13200
C         14.75716         4.12329         0.17072
C         15.96979         6.27058         0.40559
C         14.76525         5.57354         0.26393
C         15.99397         7.69620         0.39143
C         14.76520         8.41639         0.31458
C         16.01124        10.54928         0.37865
C         14.77816         9.84456         0.34688
C         16.01737        11.98819         0.36919
C         14.79324        12.70459         0.42866
C         16.02193        14.82543         0.12540
C         14.78838        14.14032         0.34806
C         15.98266        16.29396        -0.27791
C         14.75189        17.03870         0.22276
C         16.01319        19.13832        -0.20803
C         14.73949        18.43341         0.22611
C         16.01358        20.61731         0.01836
C         14.78468        21.31025         0.25864
C         15.93236        23.37492        -0.40057
C         14.78014        22.68987         0.24920
C         15.92812        24.87821        -0.34172
C         14.80653        25.60775         0.00085
C         15.87821        27.70105        -1.00580
C         14.72936        26.97691        -0.54196
C         15.84999        29.13994        -1.26164
C         14.67824        29.99062        -1.23333
C         18.48266         3.39582         0.18538
C         17.21369         4.07703         0.29912
C         18.48607         6.25836         0.41392
C         17.22405         5.51607         0.76204
C         18.48470         7.67363         0.37269
C         17.23757         8.40757         0.41073
C         18.49310        10.54303         0.31376
C         17.24526         9.82494         0.36670
C         18.49812        11.97156         0.27992
C         17.25077        12.70080         0.28335
C         18.51001        14.87915        -0.11990
C         17.22684        14.11691         0.13114
C         18.44583        16.24962         0.56346
C         17.24219        17.01478         0.13032
C         18.51907        19.18959         0.25786
C         17.20349        18.46366         0.49400
C         18.51836        20.60171         0.16331
C         17.24622        21.32459         0.04500
C         18.43687        23.53053         0.16076
C         17.23596        22.72419        -0.00021
C         18.41349        24.97757        -0.34446
C         17.13971        25.52173        -0.97657
C         18.34613        27.68620        -1.22260
C         17.12893        27.02819        -0.99240
C         18.32142        29.10196        -1.46137
C         17.08864        29.78536        -1.44212
C         19.65613         4.08509         0.20651
C         20.89869         6.24094         0.10858
C         19.68220         5.53551         0.26267
C         20.91540         7.62413         0.12784
C         19.71885         8.37223         0.25299
C         20.93403        10.54904         0.24174
C         19.72280         9.82323         0.26793
C         20.94121        11.93314         0.25864
C         19.73927        12.67168         0.26911
C         20.90265        14.85167         0.49101
C         19.76191        14.12305         0.27416
C         20.90778        16.28669         0.42976
C         19.75062        17.01742         0.40086
C         20.94316        19.21281         0.28709
C         19.73817        18.47647         0.31965
C         20.93644        20.60203         0.26717
C         19.73550        21.32365         0.19642
C         20.90052        23.51842        -0.36777
C         19.78279        22.83643         0.39170
C         20.85414        24.81571        -0.78813
C         19.66292        25.61022        -0.78984
C         20.77158        27.68865        -1.58710
C         19.60984        26.96640        -1.24268
C         20.72822        29.06867        -1.83711
C         19.53836        29.77720        -1.75967
O          3.01066        24.96094        -1.51059
O          9.32328        12.54863        -1.24995
O         13.33119        28.24392        -2.04400
O          5.59948        25.54682        -1.51708
O          7.04602        22.95913        -1.38412
O         18.26446        24.68579         1.07995
O          4.73385        27.32389         1.67988
O          8.94387        23.22418         1.90138
O         12.46818        26.87682         1.20629
O          7.25496        17.84128         2.22635
O         17.22216        25.13827        -2.40180
H         16.57555        25.68922        -2.89324
O          5.19460         4.38448        -2.70383
H          4.41406         4.90470        -3.02554
O         18.60800        15.13763        -1.54513
H         18.54784        14.28231        -2.01797
O          5.17760        21.52939         1.93573
H          4.36796        21.92684         2.32139
O         12.51640        18.49904         2.62383
H         11.64777        18.25426         3.00946
O         20.11484        23.00779         1.80283
H         19.72195        23.87107         2.07394
O         10.05234        30.51147         1.12824
H         10.02474        29.67151         1.65194
O          4.87455        12.47516         1.91568
H          4.71535        11.50566         2.08622
O          5.97519        14.74881         2.37605
H          5.68948        13.83345         2.61339
O          5.24837        14.41105        -1.21274
H          4.70499        13.80751        -1.76440
O         17.22159         5.44446         2.23923
H         16.41288         4.95552         2.50286
O          0.95708        11.41771         1.22450
H          0.94928        12.15716         1.86724
O          1.84018        27.80668         2.89621
H          2.81983        27.88761         2.91580
O         15.77282        23.02680        -1.83811
H         16.45149        23.55401        -2.33408
O          9.99904        27.76804         1.87123
H         10.88450        27.47870         2.19600
O          5.75503        29.15453        -2.12016
H          5.36237        28.27372        -2.30965
O          5.76441         5.90199         1.51091
H          4.88406         6.29056         1.70529
O          6.08994        20.45999        -1.47017
H          6.32716        21.34234        -1.85226
O         18.24816        16.01847         1.99690
H         17.94595        16.87159         2.39183
O          2.74184         5.76404        -2.91557
H          1.97605         5.31236        -3.33036
O          1.11018        23.18751         2.36574
H          0.93343        22.22551         2.44817
O         12.46091        14.06712         2.40779
H         12.59877        14.98629         2.72416
O         13.97095        23.42791         2.32720
H         13.17496        23.75015         2.80220
O          4.63455         9.77304         1.86765
H          5.38119         9.23970         2.21891
O         15.90591        16.27522        -1.74857
H         15.06472        15.83431        -1.99086
O          1.58596        11.28267        -2.36397
H          1.68789        10.52553        -2.97725
O         16.22453        18.94922        -1.63113
H         15.55321        19.47469        -2.11367
O         16.97246        18.53357         1.94678
H         16.92394        19.48324         2.19457
O          1.45349        15.05089        -1.98301
H          2.27781        15.56785        -2.10992
O          5.94277        12.04503        -1.59245
H          6.84210        11.96082        -1.97735
H          1.26451         2.41209        -0.93801
H         -0.86341         3.68384        -0.98690
H         -0.87695         6.14199        -0.93436
H         -0.88660         8.03678        -1.35313
H         -0.91832        10.45577        -1.33142
H         -1.07796        12.32484        -0.30028
H         -1.02520        14.71426        -0.51265
H         -0.97589        16.64646        -0.35138
H         -0.98033        19.06799        -0.06044
H         -0.88590        21.03603        -0.35765
H         -0.86237        23.44160         0.07213
H         -0.84690        25.17954         1.34408
H         -0.80432        27.61540         1.69455
H          0.41912        29.81295         1.22141
H          3.72658         2.41488        -0.88937
H          2.39718        31.03044         0.45428
H          6.25258         2.39401        -0.94218
H          4.76882        31.01905        -0.27632
H          8.65704         2.35292        -0.46359
H          7.34210        31.04127        -0.76477
H         11.10608         2.35043        -0.19189
H          9.65761        31.10408        -0.81722
H         13.56171         2.34960        -0.05088
H         12.04609        31.22306        -1.08001
H         16.01424         2.34506        -0.09130
H         14.84050        31.05103        -0.98693
H         18.47951         2.30407         0.04680
H         17.09211        30.86978        -1.63090
H         20.61382         3.55324         0.10727
H         21.83670         5.68022        -0.01239
H         21.88038         8.13765         0.02575
H         21.89643        10.02200         0.21708
H         21.90645        12.45619         0.23918
H         21.85972        14.35248         0.69928
H         21.88923        16.78164         0.41828
H         21.90972        18.69410         0.33353
H         21.89453        21.13546         0.32791
H         21.86136        22.98840        -0.43681
H         21.76925        25.25100        -1.21682
H         21.74332        27.17833        -1.62873
H         21.66072        29.59562        -2.08413
H         19.52131        30.86015        -1.94750
