         638
 CSIRO Nanostructure Databank - Neutral Graphene Oxide Data Set
C         22.97594        69.69104         0.54956
C         22.96577        71.06633         0.82204
C         21.74865        71.76272         1.07961
C         22.96677        73.81289         1.55523
C         21.75602        73.10082         1.42853
C         25.46935        65.50967        -0.16599
C         25.41732        66.87900        -0.08618
C         24.19421        67.61628         0.09056
C         25.44021        69.80041         0.03690
C         24.17855        68.99079         0.27280
C         25.43466        71.15620         0.69768
C         24.21660        71.79296         0.93505
C         25.43949        73.87547         1.46197
C         24.19226        73.18003         1.32548
C         27.98770        61.26166        -0.92020
C         27.93020        62.68046        -0.86484
C         26.77820        63.34689        -0.50797
C         27.82730        65.58563        -1.00325
C         26.80650        64.80697        -0.15661
C         27.85008        67.00218        -0.50922
C         26.68148        67.64000        -0.07777
C         27.96768        69.67645         0.70531
C         26.69373        69.00397         0.27279
C         27.89940        71.18932         0.68429
C         26.67438        71.85032         0.87691
C         27.92387        73.98982         1.56303
C         26.64238        73.24597         1.25535
C         30.49934        57.05087        -1.15541
C         30.47573        58.45834        -1.13739
C         29.24866        59.16932        -1.09230
C         30.46242        61.31752        -1.11982
C         29.21053        60.57365        -1.08136
C         30.45210        62.71743        -1.11578
C         29.15012        63.43380        -1.36997
C         30.35757        65.56773        -0.86253
C         29.17623        64.89176        -0.98587
C         30.36540        67.05362        -0.87058
C         29.02877        67.82656        -0.68476
C         30.25733        70.02390        -0.53278
C         29.09780        69.15744        -0.13937
C         30.30821        71.30208         0.25368
C         29.14642        71.91142         0.68822
C         30.31874        74.06621         0.85814
C         29.17696        73.33249         1.03773
C         32.92864        52.79166        -0.95683
C         32.95410        54.19248        -1.09859
C         31.74656        54.92160        -1.20311
C         32.95082        57.06748        -1.23988
C         31.72271        56.34338        -1.20717
C         32.95729        58.47786        -1.18668
C         31.71670        59.18689        -1.13973
C         32.93798        61.33005        -1.11045
C         31.70760        60.60808        -1.11581
C         32.91590        62.75557        -1.02890
C         31.66503        63.44880        -1.02351
C         32.85834        65.58063        -0.77387
C         31.65026        64.87853        -0.88497
C         32.88428        67.02131        -0.43888
C         31.58285        67.78485        -0.44288
C         32.77455        69.93681        -0.46203
C         31.58190        69.26320        -0.47733
C         32.82247        71.33448        -0.10991
C         31.62623        71.93442         0.58643
C         32.75554        74.13308         0.41435
C         31.58177        73.44262         0.53221
C         35.29053        48.51729        -0.61447
C         35.29881        49.91364        -0.48275
C         34.11439        50.65314        -0.73232
C         35.37893        52.76193        -0.66389
C         34.12135        52.05764        -0.76709
C         35.40984        54.19060        -0.87605
C         34.22322        54.88117        -1.10683
C         35.45911        57.09672        -1.16827
C         34.22130        56.32477        -1.54433
C         35.44493        58.47360        -1.13699
C         34.20001        59.20779        -1.17785
C         35.41413        61.37504        -1.04841
C         34.18677        60.62596        -1.13931
C         35.39017        62.80008        -0.97449
C         34.13710        63.49046        -0.97684
C         35.33717        65.65428        -0.88216
C         34.11730        64.91100        -0.86917
C         35.30456        67.10172        -0.91432
C         34.13451        67.77684        -0.67357
C         35.29655        70.00220        -0.68622
C         34.02335        69.25320        -0.98374
C         35.26997        71.33479        -0.37483
C         34.01992        72.02255        -0.08289
C         35.20900        74.11552         0.44649
C         34.03175        73.44856         0.25949
C         37.87237        44.23759        -0.70748
C         37.80126        45.67132        -0.54955
C         36.58241        46.31726        -0.61378
C         37.71655        48.47294         0.18645
C         36.42260        47.71099        -0.19961
C         37.74153        49.93651         0.07395
C         36.52887        50.63998        -0.21330
C         37.90805        52.72095        -0.49977
C         36.55467        52.04573        -0.40158
C         37.85650        54.23109        -0.43913
C         36.69109        54.88701        -0.79849
C         38.00501        57.08292        -0.80886
C         36.71973        56.33069        -1.11078
C         37.94019        58.54646        -0.66308
C         36.74560        59.24148        -1.26963
C         37.80843        61.41169        -0.58792
C         36.65400        60.69883        -0.90289
C         37.83868        62.83292        -0.71027
C         36.60674        63.53387        -0.91900
C         37.81075        65.69510        -0.96915
C         36.58848        64.97356        -0.95146
C         37.84397        67.12014        -1.02080
C         36.54347        67.82405        -1.42733
C         37.84808        70.03972        -0.96493
C         36.54991        69.32323        -1.12537
C         37.76826        71.25439        -0.04410
C         36.54857        72.14462        -0.37032
C         37.72589        74.25464         0.24937
C         36.51284        73.36839         0.55812
C         40.20554        39.99816        -0.31524
C         40.26892        41.41174        -0.62497
C         39.09468        42.14120        -0.71621
C         40.32145        44.36527        -1.09193
C         39.06926        43.56489        -0.79288
C         40.29699        45.70605        -0.37024
C         39.03558        46.38381        -0.25269
C         40.17271        48.48343         0.37125
C         38.99420        47.75723         0.08115
C         40.16663        49.89798         0.53307
C         38.95651        50.60903         0.30623
C         40.22307        52.81152         0.51917
C         38.88313        52.10831         0.50135
C         40.21064        54.22763         0.42026
C         39.07431        54.93916        -0.07834
C         40.26316        57.11896         0.17693
C         39.10670        56.35592        -0.17454
C         40.27152        58.54126         0.06500
C         39.04139        59.23916        -0.24262
C         40.30874        61.42374        -0.21460
C         38.99514        60.72234         0.02464
C         40.31448        62.82911        -0.48734
C         39.08174        63.51928        -0.70704
C         40.32851        65.69577        -0.83858
C         39.08754        64.93838        -1.21725
C         40.29974        67.06832        -0.66992
C         39.05305        67.80072        -0.84703
C         40.30545        69.94537        -0.32777
C         39.17770        69.29225        -1.10296
C         40.26264        71.34363        -0.03571
C         39.03626        72.07113        -0.02069
C         40.23648        74.14643         0.35355
C         39.02136        73.46061         0.20352
C         42.69835        35.81870         1.06693
C         42.45957        37.27145         0.68100
C         41.31055        37.84393         0.21251
C         42.65318        39.83462        -0.64362
C         41.33521        39.24085        -0.18106
C         42.71166        41.34854        -0.47885
C         41.55076        42.08275        -0.64224
C         42.71238        44.22643        -0.06566
C         41.67408        43.56812        -0.95875
C         42.71226        45.58877         0.18191
C         41.46298        46.32566         0.05800
C         42.67414        48.47177         0.85398
C         41.39113        47.70018         0.58358
C         42.63826        49.94250         0.84238
C         41.40811        50.63152         0.76559
C         42.66228        52.78722         1.16822
C         41.38957        52.07099         0.76851
C         42.69864        54.25184         0.79815
C         41.39242        54.99847         0.97752
C         42.64679        57.16090         0.64051
C         41.45497        56.44439         0.54838
C         42.69068        58.57281         0.42190
C         41.47946        59.27434         0.19574
C         42.75700        61.41345        -0.05586
C         41.50106        60.71733        -0.02066
C         42.77450        62.82507        -0.31801
C         41.56827        63.51027        -0.54684
C         42.83694        65.68858        -0.52771
C         41.62343        64.94731        -1.02049
C         42.76156        67.09869        -0.35088
C         41.54447        67.78681        -0.39927
C         42.67625        69.90542         0.28739
C         41.50543        69.22516        -0.14544
C         42.69074        71.31064         0.40196
C         41.47270        72.03665         0.25414
C         42.70387        74.13979         0.57418
C         41.46458        73.45345         0.40394
C         44.53852        33.38060        -1.26279
C         43.55881        34.01541        -0.48409
C         45.17477        35.66818         0.20733
C         43.84613        35.17882         0.24789
C         45.60191        36.88149         0.93243
C         43.64627        38.10179         0.77840
C         45.20172        39.82292        -0.33838
C         43.85546        39.21991         0.04311
C         45.18946        41.33018        -0.09993
C         43.97439        42.00017        -0.19229
C         45.16492        44.13256         0.66492
C         43.88118        43.40759         0.26588
C         45.12299        45.60716         0.70833
C         43.94136        46.28466         0.56449
C         45.11170        48.47421         1.20012
C         43.96319        47.79890         0.43307
C         45.16632        49.93811         0.82770
C         43.90771        50.65229         0.77842
C         45.12330        52.77681         0.44721
C         43.90605        52.04296         0.78312
C         45.16327        54.24717         0.58585
C         43.88805        54.92913         0.69571
C         45.17873        57.14215         0.79130
C         43.89216        56.40657         0.87016
C         45.16249        58.60003         0.53898
C         43.94763        59.28858         0.39910
C         45.22435        61.39672         0.11738
C         43.96911        60.70364         0.15694
C         45.23314        62.80863        -0.15927
C         44.04645        63.53021        -0.34639
C         45.26707        65.71633        -0.13441
C         44.04902        64.98615        -0.40121
C         45.26918        67.08567         0.10873
C         44.04496        67.89833        -0.24804
C         45.18331        69.90431         0.71938
C         43.89819        69.10562         0.66586
C         45.14545        71.30471         0.78236
C         43.91646        72.02684         0.62569
C         45.18848        74.25104         0.67530
C         43.90456        73.45113         0.64922
C         45.80526        33.92850        -1.39475
C         47.39162        35.77101        -0.96782
C         46.14181        35.12283        -0.70306
C         47.68543        37.08974        -0.52991
C         46.66726        37.73538         0.34024
C         47.73345        39.91769        -0.33026
C         46.50129        39.25170         0.34821
C         47.70183        41.38111         0.01047
C         46.44596        42.02819         0.14677
C         47.64564        44.15875         0.39086
C         46.44824        43.43789         0.40304
C         47.60140        45.66862         0.34520
C         46.42481        46.26161         1.13251
C         47.59982        48.46613         1.04314
C         46.41653        47.76826         1.00719
C         47.63768        49.90354         0.95473
C         46.40001        50.59113         0.72663
C         47.75099        52.77035         0.23971
C         46.42538        52.01184         0.31851
C         47.64815        54.23787         0.63145
C         46.38711        54.91696         0.58161
C         47.64690        57.12775         0.73864
C         46.40117        56.40419         0.30656
C         47.61524        58.52635         0.74939
C         46.41012        59.27654         0.52313
C         47.71600        61.39200         0.37026
C         46.43779        60.69291         0.33999
C         47.76738        62.79137         0.12534
C         46.54040        63.48419        -0.26918
C         47.76983        65.69663         0.26972
C         46.55789        65.02361        -0.20402
C         47.71275        67.08059         0.59851
C         46.46274        67.77865         0.48992
C         47.62749        69.85511         1.13518
C         46.42212        69.18280         0.77587
C         47.54582        71.29000         1.43485
C         46.36120        72.04932         1.02642
C         47.68507        74.11175         0.95214
C         46.42028        73.43301         0.96507
C         48.89056        37.77149        -0.64894
C         50.26203        39.92798        -0.46100
C         49.03003        39.14093         0.02205
C         50.18989        41.40426        -0.10410
C         48.92317        42.08092         0.07741
C         50.12919        44.22878         0.34406
C         48.90200        43.49928         0.26748
C         50.11949        45.64059         0.64454
C         48.90168        46.30567         0.75798
C         50.15784        48.45385         1.30889
C         48.85119        47.68902         1.21267
C         50.09855        49.91610         1.19901
C         48.89378        50.61457         1.03457
C         50.09276        52.78508         1.00424
C         48.92187        52.05917         0.87966
C         50.11591        54.23167         0.89157
C         48.84651        54.95494         0.82879
C         50.09014        57.11298         1.00317
C         48.84313        56.38762         0.94607
C         50.10089        58.47781         0.89005
C         48.85606        59.27533         1.14366
C         50.14838        61.37553         0.61798
C         48.90503        60.69226         0.63728
C         50.17981        62.78335         0.44041
C         48.98598        63.51545         0.24428
C         50.16737        65.66932         0.71444
C         48.98787        64.97565         0.34983
C         50.16651        67.07672         0.98480
C         48.91236        67.78266         0.94217
C         50.12033        69.92075         1.40988
C         48.87422        69.18836         1.17639
C         50.12105        71.29185         1.54323
C         48.86542        72.06031         1.57365
C         50.17150        74.03132         0.58988
C         48.87816        73.45012         1.11942
C         51.35713        42.12742        -0.05052
C         52.58121        44.25808         0.25763
C         51.36949        43.54422         0.19277
C         52.61289        45.65681         0.49710
C         51.37596        46.36089         0.74762
C         52.62540        48.48676         0.88143
C         51.40453        47.74637         0.96955
C         52.64227        49.89275         1.05818
C         51.38168        50.60423         1.36519
C         52.63251        52.80641         1.02044
C         51.36924        52.11677         1.32778
C         52.60078        54.20206         0.90654
C         51.33592        54.90214         0.94675
C         52.61226        57.08369         0.77782
C         51.37473        56.37054         1.26945
C         52.59611        58.43071         0.58448
C         51.31905        59.19166         0.39079
C         52.60444        61.31157         0.95145
C         51.38007        60.65175         0.75807
C         52.67091        62.71646         0.94730
C         51.47582        63.45989         0.51925
C         52.59774        65.58075         1.46833
C         51.45099        64.95923         0.70935
C         52.70693        67.04858         1.03879
C         51.38385        67.77985         1.19978
C         52.59041        69.89224         1.64685
C         51.39467        69.19019         1.41097
C         52.60438        71.31474         2.00580
C         51.30944        72.12127         1.98298
C         52.60581        74.04211         1.08947
C         51.42507        73.41078         1.18537
C         53.82514        46.37336         0.47758
C         55.06560        48.51044         0.58391
C         53.85897        47.78038         0.64124
C         55.08199        49.91738         0.69863
C         53.84428        50.62687         0.92419
C         55.07406        52.77024         0.73541
C         53.85244        52.06654         0.92698
C         55.08019        54.19530         0.67944
C         53.84401        54.92280         0.76926
C         55.08642        57.02728         0.52640
C         53.85261        56.33009         0.69524
C         55.10478        58.44073         0.48907
C         53.84012        59.22976         0.33111
C         55.13916        61.25335         1.02210
C         53.84769        60.48520         1.21395
C         55.15657        62.66945         1.55125
C         53.88708        63.44128         1.22100
C         55.16012        65.51983         1.78132
C         53.89836        64.81478         1.31776
C         55.17863        67.01194         1.54970
C         53.88778        67.70599         1.72840
C         55.17055        69.89749         1.66517
C         53.88003        69.19209         1.85747
C         55.15800        71.33344         1.56986
C         53.93505        72.06522         1.96651
C         55.07678        74.18697         1.18918
C         53.85924        73.59286         1.83521
C         56.29296        50.64401         0.57183
C         57.53251        52.77254         0.42801
C         56.31680        52.05052         0.58901
C         57.55723        54.17477         0.39360
C         56.31095        54.89389         0.51811
C         57.54276        57.03450         0.28235
C         56.32127        56.31194         0.46294
C         57.53146        58.43579         0.28091
C         56.31280        59.14443         0.46261
C         57.58978        61.28031         0.84051
C         56.28650        60.59180         0.70292
C         57.59962        62.74998         0.87119
C         56.40333        63.44162         1.18078
C         57.58266        65.57681         1.00554
C         56.40295        64.83182         1.28496
C         57.59613        67.00804         1.10932
C         56.35663        67.72500         1.42551
C         57.65350        69.95888         1.51961
C         56.34845        69.17695         1.45428
C         57.51976        71.34377         0.89901
C         56.28812        72.03345         1.11690
C         57.36832        74.14259         0.36274
C         56.21338        73.47328         0.88420
C         58.77085        54.90903         0.21655
C         60.01862        57.03972         0.00804
C         58.79834        56.30783         0.15172
C         60.05535        58.44133        -0.06817
C         58.75213        59.20032        -0.16023
C         60.04407        61.35364         0.14911
C         58.85081        60.56045         0.48941
C         60.00789        62.74630         0.22393
C         58.78833        63.44961         0.59656
C         59.92593        65.60821         0.24175
C         58.76970        64.87373         0.63728
C         59.86926        67.01084         0.22268
C         58.74557        67.71454         0.72650
C         59.86910        69.90621         0.12852
C         58.94571        69.17546         1.08366
C         59.82430        71.32037         0.00886
C         58.62239        72.02742         0.37089
C         59.69033        74.13521        -0.42335
C         58.54496        73.45184         0.09313
C         61.23430        59.19683        -0.20199
C         62.40206        61.37299        -0.48261
C         61.24045        60.63154        -0.21158
C         62.40191        62.79700        -0.45759
C         61.18258        63.50490        -0.11251
C         62.33223        65.66283        -0.42375
C         61.14508        64.90851        -0.12008
C         62.27378        67.05471        -0.53946
C         60.92574        67.72442        -0.57353
C         62.08534        69.89459        -0.92074
C         60.97420        69.20947        -0.38393
C         62.03105        71.30153        -1.05879
C         60.89792        72.00870        -0.62806
C         62.00827        74.14781        -1.25914
C         60.85106        73.45638        -0.77870
C         63.56110        63.52879        -0.75305
C         64.73817        65.67864        -0.94961
C         63.58133        64.95900        -0.70772
C         64.78758        67.16597        -0.74024
C         63.42827        67.81719        -0.87703
C         64.49973        69.93445        -1.57614
C         63.32124        69.17521        -1.18420
C         64.43207        71.28939        -1.77178
C         63.09704        71.98089        -1.87098
C         64.28538        74.15381        -2.19660
C         63.14653        73.47917        -1.69759
C         65.84224        67.86681        -1.55407
C         66.81060        69.91770        -2.51232
C         65.75016        69.20402        -1.83600
C         66.76948        71.28599        -2.68190
C         65.69401        72.08234        -1.97325
C         66.51827        74.09086        -3.22347
C         65.46441        73.46921        -2.53771
C         67.78410        72.00552        -3.38183
C         67.66612        73.36817        -3.61356
O         46.82326        37.04072         1.66751
O         44.31367        43.50846         1.67159
O         44.61141        37.59285         1.65359
O         37.15934        70.12960        -2.25305
O         58.43432        60.63743         1.88763
O         37.68067        56.63789        -2.19998
O         48.04945        71.72767         2.74264
O         46.71679        64.29726        -1.47317
O         41.96955        47.83879         1.94388
O         53.73155        68.29310         3.04902
O         49.49094        47.92566         2.51455
O         44.64736        56.77091         2.10140
O         51.41927        51.40521         2.61145
O         53.38826        71.57128         3.22522
O         32.15705        67.29857         0.82530
O         29.70904        67.63060        -2.00766
O         59.85027        69.14192         2.18763
O         45.63486        52.28959        -0.88309
O         36.81820        47.95184         1.20968
O         51.79191        64.40995        -0.59801
O         37.00908        59.24895        -2.71739
H         37.25909        58.31936        -2.95339
O         38.43290        52.40096        -1.82320
H         37.89076        52.87554        -2.48822
O         44.12874        48.08637        -0.97654
H         44.98318        47.70401        -1.27079
O         55.16029        62.54862         3.03030
H         56.01993        62.14385         3.28281
O         57.80455        70.25476         2.93434
H         58.72509        69.92527         3.15893
O         38.30627        52.32601         1.81983
H         38.90447        51.92657         2.48571
O         28.99882        63.43700        -2.83338
H         28.20845        64.00089        -3.02381
O         45.09058        75.34021         1.60755
H         45.14145        74.97152         2.51315
O         53.05713        67.08984        -0.37180
H         52.51933        66.41880        -0.84908
O         49.19145        38.99217         1.43798
H         48.37196        38.60632         1.82049
O         39.60315        69.40521        -2.50089
H         38.83393        69.74021        -3.01668
O         52.26112        65.53176         2.87330
H         53.06456        65.80499         3.37882
O         47.70282        39.87511        -1.79461
H         47.87533        38.94220        -2.06406
O         60.47107        67.57038        -1.98396
H         60.45850        66.60809        -2.17871
O         34.27791        56.25034        -3.02694
H         34.28636        57.17228        -3.36392
O         43.66802        68.58375         2.01034
H         43.60043        69.34496         2.62396
O         38.76172        60.84500         1.48100
H         39.55436        60.48682         1.93505
O         55.11756        65.37163         3.24986
H         55.15726        64.39877         3.43776
O         48.78417        59.42283         2.61918
H         48.87866        58.52623         3.00828
O         31.83136        71.61109         2.01924
H         32.64685        72.07619         2.30660
O         41.15223        55.05134         2.44558
H         41.80806        55.67937         2.82115
O         33.87532        69.30117        -2.44966
H         34.65922        68.84351        -2.83807
O         36.44325        67.70152        -2.88178
H         37.00924        68.41204        -3.26307
O         51.12620        59.22828        -1.07970
H         51.95550        59.62704        -1.44539
O         50.18980        73.84683        -0.84448
H         50.15020        72.88691        -1.03373
O         51.01878        72.54786         3.34000
H         50.92977        71.74655         3.89807
O         53.81414        59.71845        -1.05498
H         54.15645        59.00349        -1.63228
O         36.71782        72.70057        -1.69481
H         36.69200        71.94645        -2.33134
O         53.82009        60.05993         2.59657
H         54.00508        60.85584         3.14765
O         44.78258        48.34704         2.61888
H         45.43754        48.86881         3.12899
O         65.18082        67.35617         0.67465
H         65.09085        68.31297         0.87446
O         66.22413        72.32385        -0.61789
H         67.07536        72.79995        -0.72226
O         39.13866        64.78535        -2.71921
H         38.84922        65.64409        -3.09944
O         58.54287        59.48187        -1.58632
H         58.61888        58.63298        -2.07096
O         47.34886        46.03737        -1.05425
H         48.06401        45.64699        -1.60026
O         62.69532        71.79969        -3.28535
H         62.48102        70.84969        -3.40798
O         53.75393        74.16243         3.16234
H         53.19599        73.53956         3.68592
O         27.36293        65.58699        -2.39061
H         27.90192        66.25593        -2.86824
O         42.34161        43.59533        -2.25823
H         41.90456        44.31246        -2.78097
O         51.48479        56.40547         2.74265
H         52.30541        55.92739         2.98966
O         44.30308        68.42234        -1.58289
H         44.30666        67.66754        -2.20900
O         37.76751        75.24865         1.28360
H         38.50291        75.86822         1.10197
O         46.61688        45.92650         2.52532
H         45.86905        46.31820         3.02797
O         25.43238        70.10184        -1.41376
H         25.30514        69.25017        -1.88472
O         36.62524        72.96359         1.95152
H         36.94462        73.76255         2.43056
O         50.41282        39.81542        -1.88591
H         49.63066        40.24637        -2.29743
O         48.11218        52.81201        -1.18338
H         47.25737        52.82546        -1.67808
O         40.17255        44.74064        -2.50363
H         39.75358        43.98731        -2.97141
O         37.60977        70.64043         1.26041
H         37.36436        71.36270         1.89383
O         46.49861        39.69135         1.71433
H         45.97143        39.04060         2.23364
O         27.33284        64.88073         1.21065
H         26.64880        64.53002         1.81837
O         46.33958        56.51195        -1.15451
H         47.15341        56.10360        -1.51916
O         45.25336        39.55243        -1.76647
H         46.01139        40.06169        -2.14794
O         41.50313        35.06353         0.93193
H         41.12632        35.22670         0.04356
O         28.19717        69.32104         2.13168
H         29.07501        69.67852         2.38728
O         30.11297        70.42034        -1.94323
H         30.01644        69.58553        -2.45774
O         42.66015        39.56718        -2.07572
H         43.60167        39.64024        -2.37153
O         41.82408        64.85842        -2.48156
H         40.93801        64.63380        -2.87009
O         42.64029        52.77935         2.64655
H         41.94170        53.43127         2.91117
O         27.83730        75.35257         1.12955
H         27.71369        75.35557         0.15833
H         22.94814        74.87533         1.83727
H         25.42933        74.93269         1.76706
H         28.02066        74.02882         2.68698
H         30.28883        75.15636         1.00883
H         32.76706        75.22881         0.52222
H         35.19913        75.18477         0.70840
H         37.57572        74.76315        -0.74418
H         40.24248        75.24009         0.47772
H         42.70842        75.23821         0.62678
H         45.31093        74.72651        -0.33933
H         47.68982        75.17070         0.65267
H         50.18634        75.13660         0.75963
H         52.65709        75.01201         0.56896
H         55.06563        75.27514         1.02247
H         57.31809        75.22792         0.18925
H         59.63471        75.22619        -0.55806
H         62.00265        75.24916        -1.24409
H         64.23415        75.24347        -2.35525
H         66.41546        75.14228        -3.53060
H         22.03379        69.12432         0.60739
H         20.79667        71.21916         0.99311
H         20.80584        73.62070         1.61662
H         24.54499        64.91498        -0.09887
H         23.24732        67.05589         0.13645
H         27.07303        60.68133        -0.72265
H         25.87283        62.76451        -0.26803
H         29.55212        56.49215        -1.13925
H         28.30568        58.60376        -1.05620
H         31.96659        52.25993        -0.99502
H         30.79259        54.37399        -1.19174
H         34.41378        48.02247        -1.05857
H         33.17123        50.11321        -0.90081
H         36.93596        43.66337        -0.63535
H         35.69468        45.76741        -0.96111
H         39.21639        39.56313        -0.10287
H         38.13130        41.61810        -0.61506
H         42.98723        35.78762         2.15137
H         40.36395        37.28356         0.16723
H         44.28231        32.45777        -1.80204
H         42.54952        33.58413        -0.42823
H         46.54683        33.46335        -2.05955
H         48.12266        35.24493        -1.59958
H         49.74980        37.31680        -1.16447
H         51.17806        39.48055        -0.00314
H         52.32050        41.61557        -0.19482
H         53.52942        43.72234         0.10142
H         54.76660        45.83220         0.30047
H         56.01176        47.97436         0.41740
H         57.23293        50.09109         0.42589
H         58.47211        52.21089         0.31688
H         59.71440        54.34908         0.12977
H         60.96559        56.47801        -0.00967
H         62.19791        58.67229        -0.29679
H         63.33692        60.84740        -0.72985
H         64.49059        62.99305        -0.99845
H         65.67511        65.14740        -1.17720
H         66.76945        67.32221        -1.79206
H         67.66191        69.34091        -2.90670
H         68.64855        71.45415        -3.78066
H         68.45706        73.89011        -4.17046
