         614
 CSIRO Nanostructure Databank - Neutral Graphene Oxide Data Set
C         22.88648        69.76158         0.93944
C         22.94885        71.16262         1.12126
C         21.78515        71.96078         0.89168
C         23.03625        73.99402         1.29792
C         21.83648        73.34633         0.99666
C         25.36992        65.50244         0.04698
C         25.32995        66.87502         0.40563
C         24.12464        67.59064         0.44314
C         25.39252        69.57045         1.49646
C         24.04870        68.89434         1.08182
C         25.39199        71.05475         1.88788
C         24.16899        71.82537         1.44772
C         25.46977        73.90778         1.73270
C         24.22288        73.24234         1.51487
C         27.85800        61.28136        -0.41117
C         27.84459        62.68408        -0.27713
C         26.62061        63.40094        -0.24904
C         27.83566        65.53131        -0.01776
C         26.58877        64.79699        -0.06399
C         27.79736        66.91450         0.21455
C         26.58904        67.57934         0.59558
C         27.84535        69.67288         1.01080
C         26.62079        68.93037         1.00371
C         27.86504        71.07606         1.34914
C         26.67090        71.78287         1.56627
C         27.95020        73.88626         1.64910
C         26.69495        73.20374         1.69137
C         30.27687        57.03099        -0.84948
C         30.30305        58.41787        -0.68693
C         29.09529        59.15084        -0.54249
C         30.30209        61.26873        -0.19827
C         29.07397        60.56104        -0.39812
C         30.32354        62.67508        -0.09669
C         29.09143        63.39518        -0.16211
C         30.32818        65.50599        -0.05145
C         29.09064        64.82086        -0.10866
C         30.34749        66.96207        -0.12929
C         29.01127        67.71342         0.01406
C         30.28361        69.73702         0.71218
C         29.04351        69.08573         0.54082
C         30.28543        70.93694         1.45808
C         29.11815        71.75434         1.46797
C         30.39014        73.95537         1.36289
C         29.16197        73.20047         1.52611
C         32.69189        52.74646        -1.12020
C         32.76143        54.18020        -1.31304
C         31.57795        54.87366        -1.09877
C         32.83203        57.08753        -1.23796
C         31.47020        56.30854        -1.24968
C         32.79638        58.46040        -0.71487
C         31.57841        59.10326        -0.54107
C         32.85137        61.22535         0.15493
C         31.53753        60.48695        -0.03418
C         32.82078        62.70550         0.07049
C         31.58114        63.38977         0.01189
C         32.81516        65.54179        -0.00514
C         31.57659        64.81672         0.01162
C         32.80987        67.00358         0.03555
C         31.60968        67.67478         0.11572
C         32.81231        69.95603        -0.05956
C         31.52655        69.15552         0.11835
C         32.86549        71.42808         0.14493
C         31.66211        72.27983        -0.08991
C         32.81310        74.18104         0.97049
C         31.58099        73.50904         0.77763
C         35.26146        48.64830        -0.88185
C         35.21007        49.91806        -1.42963
C         33.93286        50.56528        -1.31629
C         35.40088        52.94077        -2.06588
C         33.59499        51.87096        -1.70726
C         35.31219        54.22568        -1.50281
C         34.03575        54.90840        -1.41182
C         35.30182        56.99436        -0.93717
C         34.07089        56.29761        -1.16257
C         35.29469        58.41972        -0.70995
C         34.06505        59.13148        -0.51596
C         35.31505        61.22120        -0.20647
C         34.09730        60.50503        -0.18923
C         35.30683        62.63435         0.34630
C         34.03585        63.41693         0.04408
C         35.33599        65.57045        -0.22114
C         34.03243        64.82927        -0.01105
C         35.28425        67.05124         0.12227
C         34.06412        67.75933         0.08369
C         35.27398        69.88792         0.37627
C         34.06723        69.18469         0.11746
C         35.28653        71.33692         0.56113
C         34.04531        72.06975         0.48783
C         35.26487        74.17318         0.96996
C         34.04201        73.51116         0.76179
C         37.61079        44.20861        -0.25727
C         37.25231        45.56781        -0.02590
C         36.30795        46.40273        -0.56553
C         37.75118        48.32462        -1.22270
C         36.48418        47.91651        -0.41168
C         37.79116        49.79714        -1.69479
C         36.47902        50.54740        -1.92545
C         37.84208        52.79989        -1.69257
C         36.59867        52.12792        -2.08840
C         37.79492        54.12246        -1.29046
C         36.55429        54.87645        -1.19807
C         37.77065        57.01527        -0.77744
C         36.54283        56.28433        -0.94357
C         37.77430        58.41800        -0.75281
C         36.52493        59.14216        -0.68608
C         37.74691        61.37625        -0.81846
C         36.51053        60.56145        -0.50978
C         37.74735        62.78087        -0.21321
C         36.57637        63.40817         0.09713
C         37.78805        65.64629         0.17276
C         36.51928        64.87880         0.47923
C         37.76363        67.01850         0.19435
C         36.50010        67.75125         0.29016
C         37.73346        69.86945         0.79615
C         36.48000        69.15518         0.47961
C         37.73853        71.34967         0.85525
C         36.48526        72.03942         0.78348
C         37.72066        74.15958         1.14656
C         36.49694        73.47920         0.95787
C         40.09391        40.11565         0.46929
C         40.14535        41.46767         0.20011
C         38.95270        42.23023        -0.03065
C         40.19234        44.35177         0.25854
C         38.88328        43.63110         0.02126
C         40.37535        45.88567         0.24363
C         39.17838        46.72671         0.15702
C         40.32465        48.54297        -0.90073
C         39.07271        47.87847        -0.58179
C         40.35255        49.88483        -1.26636
C         39.10350        50.55164        -1.73862
C         40.37752        52.75563        -1.48035
C         39.13754        52.07171        -2.00661
C         40.34933        54.14282        -1.25608
C         39.05227        54.72695        -0.68927
C         40.33013        57.02773        -0.72498
C         39.03196        56.25863        -0.59095
C         40.26105        58.47723        -0.93430
C         39.03180        59.17469        -0.77935
C         40.28771        61.31715        -0.54579
C         39.01734        60.58031        -0.67900
C         40.26669        62.78612        -0.26271
C         38.99348        63.53486        -0.18313
C         40.28859        65.65165         0.03071
C         39.02121        64.91458        -0.03483
C         40.30137        67.07518         0.19936
C         39.01801        67.80550        -0.10762
C         40.26692        70.00128         0.31868
C         39.02659        69.16224         0.55487
C         40.19797        71.29197         1.10605
C         38.92757        72.04392         1.02111
C         40.19967        74.16738         1.30027
C         38.95876        73.47876         1.17084
C         42.48680        35.93285         1.87403
C         42.53284        37.18590         1.27916
C         41.25628        37.84059         0.76526
C         42.57171        39.95471         0.31915
C         41.31407        39.37180         0.94516
C         42.66512        41.41373         0.17082
C         41.42623        42.18354         0.13859
C         42.76331        44.28148         0.07054
C         41.43507        43.55269         0.02344
C         42.75593        45.61395        -0.69710
C         41.60226        46.50227        -0.29171
C         42.81889        48.45566        -1.21247
C         41.56449        47.79635        -0.76169
C         42.84688        49.91953        -1.22158
C         41.60262        50.60795        -1.30969
C         42.86808        52.71958        -1.57854
C         41.58639        52.01671        -1.42867
C         42.83186        54.22081        -1.65531
C         41.55848        54.90010        -1.27167
C         42.80651        57.00985        -1.08045
C         41.56626        56.28603        -1.07571
C         42.79707        58.48404        -1.27271
C         41.48441        59.20136        -1.30568
C         42.82795        61.40415        -0.93060
C         41.52786        60.70601        -1.12872
C         42.77314        62.88113        -0.89327
C         41.49197        63.58172        -0.57163
C         42.75050        65.63078         0.26209
C         41.49021        64.97229        -0.08105
C         42.76371        67.08928         0.48387
C         41.50649        67.79297         0.39888
C         42.73402        69.90107         0.80511
C         41.53599        69.21754         0.56397
C         42.74818        71.34248         0.99300
C         41.47762        72.04107         1.27571
C         42.68731        74.19449         1.24990
C         41.45422        73.51893         1.30081
C         44.80815        33.37785         3.34825
C         43.63683        33.99141         2.90921
C         44.92025        35.97103         2.23799
C         43.67114        35.29272         2.34080
C         44.97099        37.27183         1.66380
C         43.78660        37.84802         1.15709
C         45.12849        39.90209         0.52152
C         43.85878        39.15923         0.48981
C         45.12220        41.27107         0.24692
C         43.91168        42.01451         0.07524
C         45.21530        44.23357         0.01327
C         43.98068        43.45377        -0.38666
C         45.25400        45.62639        -0.19189
C         44.08241        46.31627        -0.56810
C         45.35358        48.48259        -0.72376
C         44.13810        47.70240        -0.99866
C         45.33021        49.88670        -0.85659
C         44.10081        50.60875        -1.15654
C         45.32375        52.76362        -0.99793
C         44.13037        52.01678        -1.26650
C         45.32520        54.18166        -0.98449
C         44.16710        54.96514        -1.57762
C         45.22009        57.02996        -0.53068
C         44.01468        56.34501        -1.01431
C         45.22140        58.53143        -0.45823
C         44.05544        59.26458        -1.02986
C         45.30677        61.38952        -0.60476
C         44.03521        60.73676        -0.84264
C         45.34920        62.86901        -0.60661
C         44.06349        63.62247        -0.72703
C         45.30428        65.77638        -0.13000
C         44.04170        64.94071        -0.02055
C         45.25872        66.98113         0.83445
C         43.96669        67.75891         0.66532
C         45.21089        69.87215         0.91857
C         43.98608        69.18305         0.81108
C         45.19803        71.31733         1.18621
C         43.92492        72.05163         1.10425
C         45.15554        74.20399         1.03840
C         43.93556        73.50574         1.17322
C         46.04050        34.02590         3.24070
C         47.36197        36.00507         2.58565
C         46.12664        35.32867         2.68889
C         47.45632        37.32570         2.06572
C         46.24206        37.96125         1.53868
C         47.69120        39.78600         0.64419
C         46.31565        39.21828         0.95414
C         47.67386        41.29078         0.36984
C         46.37753        42.02467         0.50120
C         47.71891        44.23614         0.41196
C         46.41920        43.52142         0.41726
C         47.69966        45.68185         0.26143
C         46.51134        46.36202        -0.06013
C         47.73322        48.51189        -0.10243
C         46.52633        47.78689        -0.28722
C         47.73593        49.93268        -0.27282
C         46.53296        50.62674        -0.61526
C         47.73991        52.77222        -0.44237
C         46.53376        52.05191        -0.67210
C         47.73815        54.19594        -0.45403
C         46.51122        54.89781        -0.66500
C         47.68340        57.04861        -0.24336
C         46.50987        56.32554        -0.50877
C         47.66030        58.49442        -0.13322
C         46.50784        59.23146        -0.35859
C         47.72705        61.36370        -0.05164
C         46.49201        60.67487        -0.36082
C         47.67823        62.77603         0.33748
C         46.50490        63.57656        -0.00242
C         47.76557        65.64415         0.45230
C         46.53162        64.93805         0.16154
C         47.73085        67.10957         0.49510
C         46.51138        67.79830         0.64240
C         47.68573        69.95697         0.59778
C         46.46923        69.20655         0.75567
C         47.69908        71.37282         0.65115
C         46.49029        72.09923         1.07671
C         47.60852        74.23859         0.60067
C         46.41763        73.56474         0.87808
C         48.65386        38.03143         2.12665
C         50.04593        40.08723         1.50670
C         48.67877        39.49764         1.79315
C         50.15869        41.36560         1.01622
C         48.92672        42.07401         0.56449
C         50.13675        44.26300         1.06765
C         48.88044        43.54884         0.65212
C         50.16121        45.69879         0.60810
C         48.94567        46.38630         0.35774
C         50.16497        48.50359         0.39589
C         48.95635        47.80961         0.20717
C         50.12706        49.97009         0.44703
C         48.93016        50.66978        -0.04087
C         50.20304        52.79685        -0.07377
C         48.95723        52.07061        -0.15674
C         50.20099        54.22416        -0.19693
C         48.95607        54.92298        -0.28339
C         50.17827        57.03784        -0.12474
C         48.94634        56.34522        -0.20438
C         50.21195        58.48328         0.14244
C         48.90189        59.22237         0.18078
C         50.20666        61.38069         0.16577
C         48.93294        60.68915         0.08398
C         50.24588        62.77579         0.31757
C         49.00299        63.50944         0.59798
C         50.26470        65.70793         0.75536
C         48.96949        64.97428         0.52634
C         50.19799        67.13689         0.25774
C         48.94155        67.82567         0.33222
C         50.07259        69.98823         0.01032
C         48.90158        69.26409         0.29343
C         50.08408        71.40401         0.07585
C         48.87119        72.10260         0.38293
C         50.07026        74.23354         0.25992
C         48.85660        73.54986         0.41872
C         51.39087        42.09636         0.89473
C         52.60882        44.21999         0.64865
C         51.41285        43.49242         0.79140
C         52.63879        45.64383         0.61092
C         51.38947        46.37789         0.58003
C         52.64894        48.49676         0.51588
C         51.40873        47.81216         0.51144
C         52.74917        49.99770         0.70808
C         51.42735        50.73096         0.54496
C         52.67330        52.79999        -0.10235
C         51.43114        52.12336         0.07782
C         52.68222        54.22911        -0.19932
C         51.42672        54.93614        -0.18233
C         52.63831        57.11463        -0.26331
C         51.41383        56.36167        -0.17707
C         52.62469        58.49823        -0.38902
C         51.43303        59.24638        -0.16062
C         52.67715        61.38657        -0.23330
C         51.43352        60.65098        -0.09047
C         52.67569        62.79323        -0.04280
C         51.47849        63.51342         0.20060
C         52.65623        65.68192        -0.00151
C         51.48104        64.94331         0.28138
C         52.61302        67.11461        -0.15576
C         51.35903        67.81176        -0.08514
C         52.54270        70.02535        -0.37753
C         51.26400        69.25186        -0.54184
C         52.54929        71.40688        -0.24513
C         51.30719        72.12975        -0.06150
C         52.55006        74.25142         0.06681
C         51.30796        73.54691         0.08327
C         53.84691        46.35747         0.51109
C         55.11155        48.49897         0.33215
C         53.87457        47.77694         0.45361
C         55.15533        49.87905         0.08037
C         53.83723        50.57269        -0.20118
C         55.11728        52.75975        -0.19645
C         53.89880        52.08041        -0.11341
C         55.13078        54.19658        -0.28572
C         53.90509        54.91791        -0.27410
C         55.13773        57.11483        -0.66215
C         53.94981        56.40837        -0.04549
C         55.12840        58.46831        -0.81216
C         53.82571        59.23216        -0.91826
C         55.12255        61.36799        -0.66253
C         53.89173        60.68440        -0.51509
C         55.03395        62.86241        -0.89478
C         54.00114        63.51239         0.03791
C         55.06616        65.72806        -0.41688
C         53.89813        65.00382        -0.20616
C         55.05548        67.15289        -0.42171
C         53.81330        67.82474        -0.40621
C         55.10376        70.04964        -0.49523
C         53.78055        69.28235        -0.61936
C         55.01263        71.46247        -0.10701
C         53.80698        72.13143        -0.11958
C         55.01894        74.29774        -0.01867
C         53.78471        73.58902         0.01919
C         56.34992        50.61279         0.01492
C         57.57302        52.75356        -0.19815
C         56.37391        52.03222        -0.15120
C         57.59874        54.17278        -0.36839
C         56.36204        54.88355        -0.43733
C         57.68962        57.01263        -1.05595
C         56.35922        56.30133        -0.85072
C         57.68494        58.52076        -1.14527
C         56.36870        59.24577        -1.07667
C         57.60218        61.41065        -0.57223
C         56.35452        60.70578        -0.78245
C         57.60459        62.82132        -0.43385
C         56.38629        63.57070        -0.80902
C         57.58931        65.74804        -0.15707
C         56.36916        65.04613        -0.60645
C         57.53990        67.13236        -0.05709
C         56.30751        67.86660        -0.27430
C         57.50651        69.98122         0.15678
C         56.31862        69.26103        -0.20411
C         57.49005        71.45066        -0.15771
C         56.25804        72.16344         0.38761
C         57.49198        74.27332        -0.18044
C         56.26559        73.63588         0.02346
C         58.82210        54.88792        -0.38117
C         60.05107        57.00467        -0.28128
C         58.89851        56.29609        -0.57340
C         60.16025        58.46712        -0.42939
C         58.94178        59.27049        -0.80050
C         59.96290        61.36692         0.11151
C         58.83844        60.70001        -0.39465
C         59.92716        62.78676         0.34951
C         58.75815        63.53376        -0.00256
C         59.93003        65.62529         0.62257
C         58.77399        64.97508         0.12561
C         60.00438        67.11004         0.63964
C         58.76269        67.88436         0.27219
C         59.85735        70.09997         0.93586
C         58.65022        69.33138         0.54715
C         59.95967        71.50764         0.45753
C         58.76868        72.17250         0.14939
C         59.99005        74.19346        -0.32145
C         58.74989        73.57558        -0.10241
C         61.26811        59.12920         0.35487
C         62.30272        61.28549         0.84740
C         61.20321        60.64068         0.39347
C         62.27750        62.69871         1.34889
C         61.04905        63.46790         0.90138
C         62.26934        65.50897         1.67012
C         61.04757        64.86234         1.03839
C         62.32650        67.05068         1.62794
C         60.98371        67.78890         1.59992
C         62.37505        70.01389         1.06382
C         61.09549        69.32758         1.34239
C         62.40826        71.38738         0.74399
C         61.21820        72.17767         0.42766
C         62.35041        74.13063        -0.80375
C         61.22342        73.50876        -0.16453
C         63.51675        63.48323         0.99502
C         64.69485        65.60377         0.78174
C         63.53233        64.84756         1.12513
C         64.78269        66.99824         0.84794
C         63.61409        67.76870         1.36323
C         64.95213        69.91477         0.86180
C         63.64246        69.27032         1.23210
C         64.92154        71.32955         0.42823
C         63.70797        72.00261         0.66461
C         64.84377        73.85596        -1.23754
C         63.67635        73.82266        -0.47020
C         65.93147        67.66312         0.37824
C         67.23210        69.72751        -0.00503
C         66.08438        69.07805         0.38869
C         67.39272        71.22323         0.16829
C         66.08033        71.94916        -0.09012
C         67.20658        73.46608        -1.65148
C         66.04134        73.12875        -0.92192
C         68.53419        71.68602        -0.68155
C         68.41593        72.74131        -1.54059
O         41.93829        63.46182        -1.97378
O         40.80916        71.34555         2.41831
O         32.09548        56.86917        -2.46326
O         36.53126        51.17847        -3.20966
O         46.25850        42.79687         1.74071
O         31.95690        69.62629        -1.21043
O         48.19358        62.97558         1.69525
O         43.49769        64.81482         1.33094
O         40.39673        45.12506         1.51005
O         45.98644        71.67563         2.38770
O         60.27300        70.02248         2.34358
O         44.93613        63.53806        -1.88750
O         43.13383        39.20486        -0.80258
O         60.01287        59.00254        -1.78234
O         57.04225        58.99106        -2.36949
O         38.59325        49.84378        -2.92790
O         56.57593        64.46365        -1.96872
O         39.76764        56.66321         0.61754
O         63.18311        67.46372         2.74488
O         64.56672        69.79628         2.27086
O         30.81185        72.04230        -0.93816
O         42.80218        53.45129        -2.89771
O         32.14648        60.66123         1.30358
O         59.91870        67.68849        -0.69199
O         50.59781        50.53938         1.74446
O         43.69348        58.84592        -2.38419
O         38.12781        46.20317         0.89762
O         63.80224        73.36604         0.87149
O         43.52390        47.86145        -2.37019
O         38.50685        69.20549         1.89528
O         48.46413        41.63736        -0.80561
O         49.56620        58.79256         1.43321
O         40.49030        61.83270         0.84165
O         54.51729        69.74076        -1.80142
O         44.91786        57.75273         0.74276
O         41.31589        60.11985        -2.44536
O         57.00539        56.41191        -2.17969
O         34.34949        52.43630        -2.78444
O         24.64634        68.80151         2.45910
O         29.62416        67.51738        -1.29345
O         56.29169        72.05623         1.83395
H         55.56540        72.60428         2.19783
O         42.49598        45.36304        -2.12167
H         42.75973        46.19918        -2.59270
O         54.50643        63.34156         1.39680
H         53.82519        63.67633         2.01810
O         54.53255        62.98416        -2.24289
H         55.11512        63.63475        -2.70700
O         44.08132        43.30929        -1.82837
H         43.57346        44.03954        -2.26673
O         53.57209        59.29759        -2.37071
H         54.32404        59.77692        -2.78310
O         44.60104        55.22845        -2.95418
H         44.15584        54.54817        -3.51682
O         51.04363        69.17078        -2.00211
H         51.17302        70.07001        -2.37216
O         45.38052        66.28580        -1.47716
H         45.38143        65.50543        -2.08135
O         39.01140        68.05945        -1.55879
H         39.00669        67.19004        -2.01468
O         43.02685        44.58580         1.46240
H         42.17024        44.86527         1.87290
O         40.27328        70.41953        -1.07498
H         40.02428        69.63566        -1.62293
O         39.02521        54.22990         0.68536
H         39.47879        54.91315         1.23619
O         50.07155        44.32679         2.54130
H         49.23023        44.77091         2.78159
O         35.26747        62.43568         1.79971
H         35.38523        63.32971         2.20692
O         53.18685        50.21518         2.07088
H         52.38332        50.15686         2.63654
O         50.42458        65.79738         2.22205
H         49.57341        66.11552         2.59320
O         48.14360        40.20875         2.95661
H         48.75538        40.06833         3.70915
O         60.38754        67.59595         2.89287
H         60.98337        67.99998         3.55936
O         53.43831        50.24677        -1.56326
H         54.14152        50.56081        -2.16951
O         61.16885        58.64313         1.70436
H         61.70659        59.22309         2.28340
O         54.20120        56.53593         1.41002
H         53.44966        56.11310         1.87882
O         37.66405        47.53758        -2.43350
H         38.25360        47.96446        -3.09813
O         25.34594        71.07790         3.35914
H         24.79356        70.30484         3.62621
O         41.04099        37.50388        -0.60565
H         41.78909        37.89073        -1.12031
O         45.32680        66.50469         2.19828
H         44.58449        65.86206         2.32620
O         67.74135        71.49393         1.56845
H         67.01508        71.14291         2.12789
O         48.15063        39.10454        -0.53582
H         48.52686        39.79288        -1.13578
O         62.23156        62.53205         2.80204
H         62.19563        63.44591         3.19131
O         31.38903        71.26790         2.17631
H         31.24996        72.12496         2.63149
O         37.64717        61.65987        -2.27036
H         37.88686        60.84294        -2.75839
O         36.63573        48.33080         0.96429
H         37.11455        47.61024         1.44017
O         36.26959        64.97625         1.91433
H         37.12057        64.83819         2.38188
O         41.41429        39.59036         2.38554
H         41.31793        40.55067         2.55870
O         57.34404        71.51789        -1.61000
H         58.05253        70.97882        -2.01956
O         35.62504        65.49791        -1.64664
H         34.89607        65.94093        -2.12971
O         62.18303        65.18395         3.08891
H         62.81496        65.78867         3.54593
O         39.26326        52.24031        -3.44680
H         38.76171        51.49887        -3.86509
H         23.07488        75.09105         1.35515
H         25.48082        75.00553         1.80534
H         27.95258        74.98647         1.64770
H         30.38280        74.98237         1.76790
H         32.82393        75.18111         1.43194
H         35.26162        75.25708         1.15844
H         37.70397        75.25217         1.27760
H         40.17720        75.26698         1.35451
H         42.69415        75.29547         1.24725
H         45.12339        75.30401         1.00010
H         47.60088        75.33628         0.51782
H         50.08049        75.33244         0.31747
H         52.53432        75.34927         0.14347
H         54.99430        75.39291        -0.13234
H         57.50805        75.35392        -0.39277
H         60.01543        75.23824        -0.66531
H         62.14294        74.82763        -1.62926
H         64.82849        74.41583        -2.18439
H         67.15981        74.31626        -2.34705
H         21.97372        69.32830         0.50411
H         20.84021        71.46048         0.63614
H         20.92645        73.93881         0.82685
H         24.42288        64.95667        -0.07661
H         23.20851        67.14318         0.03049
H         26.90885        60.73771        -0.52282
H         25.67485        62.84425        -0.32435
H         29.33745        56.47812        -0.70619
H         28.14032        58.61304        -0.63243
H         31.90027        52.35284        -0.46709
H         30.68025        54.31558        -0.79578
H         34.30372        48.21325        -0.55448
H         33.20359        50.04795        -0.67473
H         36.84974        43.53503        -0.68016
H         35.59960        46.03150        -1.31849
H         39.11761        39.60877         0.51002
H         38.01127        41.67262        -0.15139
H         41.52251        35.41430         1.98324
H         40.38612        37.44233         1.34559
H         44.76334        32.36861         3.78115
H         42.67437        33.46661         2.99296
H         46.95745        33.52601         3.58466
H         48.27312        35.51566         2.96267
H         49.54203        37.55686         2.57401
H         50.94528        39.54932         1.84703
H         52.34303        41.54483         0.94143
H         53.55781        43.67110         0.54609
H         54.79683        45.80296         0.47861
H         56.05580        47.93983         0.42459
H         57.30777        50.08742         0.15395
H         58.52933        52.21364        -0.13214
H         59.75289        54.34201        -0.16647
H         60.91007        56.47381         0.15509
H         62.26395        58.81166        -0.07574
H         63.20981        60.70190         1.07596
H         64.42100        62.95038         0.66268
H         65.56243        65.04743         0.39473
H         66.77423        67.05282         0.02115
H         68.07431        69.14827        -0.41187
H         69.48904        71.14960        -0.58464
H         69.27608        73.05377        -2.15020
