         349
 CSIRO Nanostructure Databank - Neutral Graphene Oxide Data Set
C          1.21620         2.29670        -0.96274
C          1.16093         3.56028        -0.42941
C          2.42413         1.56475        -1.00795
C          2.36108         4.14777         0.26456
C          1.19018         6.31656         0.64600
C          1.13966         7.73954         0.73669
C          2.33604         5.65804         0.29947
C          2.28915         8.51593         0.66772
C          0.98123        10.72813         0.46636
C          0.98096        12.00172         0.03708
C          2.20412         9.99712         0.99977
C          2.24608        12.80616        -0.17562
C          1.04993        15.07818         0.30835
C          1.13120        16.47357         0.51638
C          2.19557        14.31807         0.09133
C          2.31963        17.19230         0.32028
C          2.43175        18.54761         0.84694
C          3.66022         2.19139        -0.69156
C          3.65527         3.55874        -0.24714
C          4.88944         1.52558        -0.89706
C          4.85749         4.25614        -0.14694
C          3.52976         6.47676        -0.12868
C          3.55427         7.87167         0.48520
C          4.87144         5.74223        -0.03199
C          4.78356         8.53048         0.73720
C          3.46451        10.71217         0.62222
C          3.36777        12.21894         0.68752
C          4.75532        10.03549         1.00207
C          4.68642        12.93242         0.42976
C          3.43878        15.01949        -0.02937
C          3.46201        16.43942        -0.12643
C          4.68522        14.32557        -0.08312
C          4.66284        17.04740        -0.56684
C          3.57123        19.28322         1.04139
C          4.82726        18.97727         0.37612
C          6.11305         2.17253        -0.63756
C          6.09606         3.56028        -0.28322
C          7.35990         1.47725        -0.72654
C          7.32019         4.20633         0.08076
C          6.13011         6.42468         0.47127
C          6.03282         7.87893         0.87276
C          7.29979         5.50441         0.67319
C          7.23334         8.71808         1.02958
C          5.92784        10.67747         0.25236
C          5.96024        12.18062         0.43316
C          7.22586        10.04482         0.65892
C          7.22676        12.93257         0.11036
C          5.88260        14.97235        -0.41595
C          5.89113        16.37751        -0.65350
C          7.07709        14.11723        -0.81913
C          7.15131        17.14499        -0.75198
C          6.12119        19.04978         0.81532
C          7.26274        18.51735         0.03790
C          8.56476         2.09063        -0.38919
C          8.54669         3.46931         0.06099
C          9.82296         1.40151        -0.49450
C          9.76775         4.10982         0.36381
C          8.51523         5.95193         1.19206
C          8.53885         8.15046         1.35903
C          9.77500         5.42981         0.84243
C          9.74963         8.62413         0.93580
C          8.50426        10.71417         0.20154
C          8.51797        12.22952         0.26260
C          9.78404        10.09086         0.71301
C          9.77765        12.92249        -0.17187
C          8.38419        14.87589        -1.10390
C          8.42919        16.38578        -1.02609
C          9.67401        14.01934        -1.21253
C          9.72794        17.03849        -0.77060
C          8.61262        18.88691         0.45572
C          9.78175        18.26725        -0.04658
C         11.03527         1.98381        -0.13779
C         11.04587         3.33562         0.53756
C         12.28504         1.33416        -0.29577
C         12.27600         4.14928         0.10248
C         10.99247         6.29482         0.65074
C         10.98086         7.81596         0.67059
C         12.30025         5.60385         0.54193
C         12.29063         8.54068         0.56167
C         11.08471        10.78644         0.50590
C         11.07950        12.21307         0.00251
C         12.30681         9.95111         0.33745
C         12.27520        12.79402        -0.63987
C         10.97754        14.82455        -1.27917
C         10.98132        16.35660        -1.11289
C         12.25520        14.09174        -1.06012
C         12.28262        16.97554        -0.79211
C         11.05008        18.89009         0.15800
C         12.27320        18.31113        -0.26229
C         13.51431         1.97679        -0.05117
C         13.55281         3.40044         0.47723
C         14.73744         1.32124        -0.22328
C         14.77225         4.17793         0.02708
C         13.48629         6.32004         0.38388
C         13.48822         7.78793         0.40607
C         14.72562         5.61029         0.10425
C         14.71732         8.48383         0.22000
C         13.48621        10.60008        -0.05925
C         13.51274        11.94513        -0.76824
C         14.70866         9.89437         0.01603
C         14.75458        12.76440        -0.50070
C         13.54116        14.81226        -1.42137
C         13.50567        16.30387        -1.01693
C         14.74044        14.10270        -0.79290
C         14.71032        17.02501        -0.84620
C         13.48964        19.02615        -0.15895
C         14.71871        18.41647        -0.48501
C         15.97094         2.03774        -0.21819
C         15.94260         3.48512        -0.24872
C         17.20313         1.36491        -0.21296
C         17.17692         4.21309        -0.71188
C         15.95276         6.33250        -0.01724
C         15.96457         7.75339         0.09569
C         17.18554         5.65199        -0.26278
C         17.19460         8.44129         0.02368
C         15.93985        10.64429        -0.02250
C         15.97587        12.02949        -0.19277
C         17.18162         9.90387         0.22868
C         17.23215        12.74191        -0.15382
C         16.00864        14.85515        -0.81884
C         16.01744        16.35381        -0.93989
C         17.20031        14.21345        -0.20405
C         17.26387        17.09627        -0.62986
C         15.94374        19.14990        -0.44055
C         17.21696        18.53084        -0.54035
C         18.44711         2.05678        -0.23167
C         18.47488         3.48315        -0.42027
C         19.66653         1.38306        -0.06187
C         19.68172         4.14563        -0.53261
C         18.39220         6.33908        -0.29348
C         18.42168         7.75337        -0.13589
C         19.65199         5.64750        -0.77618
C         19.69235         8.46088        -0.18565
C         18.47440        10.65461         0.17484
C         18.45142        12.11147        -0.03337
C         19.70295         9.96047        -0.34708
C         19.71966        12.82479        -0.08648
C         18.48099        14.98357        -0.16943
C         18.47595        16.42533        -0.49376
C         19.74869        14.24312        -0.18936
C         19.71560        17.12586        -0.41854
C         18.44014        19.23775        -0.45795
C         19.69307        18.56627        -0.43998
C         20.92637         2.00871        -0.23481
C         20.95040         3.43710        -0.55974
C         22.07095         1.21834         0.09880
C         22.14395         4.17896        -0.74757
C         20.90752         6.28627        -0.14444
C         20.89837         7.79775        -0.20734
C         22.15840         5.69023        -0.78869
C         22.16895         8.51586        -0.12446
C         20.91055        10.63324         0.29813
C         20.93468        12.11742        -0.01915
C         22.18440         9.88276         0.00646
C         22.16954        12.81528        -0.10752
C         20.96240        14.95883        -0.26193
C         20.94627        16.41376        -0.32402
C         22.19416        14.25061        -0.23025
C         22.16959        17.12319        -0.28469
C         20.92564        19.25693        -0.37646
C         22.15856        18.56517        -0.30336
C         23.37456         1.50962        -0.33399
C         23.41568         3.57741        -0.93675
C         24.62821         1.18573         0.19830
C         24.64851         4.16401        -0.59612
C         23.44998         6.29550        -0.29318
C         23.42968         7.72080         0.19722
C         24.62216         5.60888        -0.38612
C         24.72153         8.45241        -0.08589
C         23.42201        10.66099         0.21280
C         23.39008        12.09732        -0.03873
C         24.74513         9.89352         0.12614
C         24.62038        12.80486        -0.39453
C         23.44523        14.96817        -0.22454
C         23.42398        16.42557        -0.21272
C         24.66035        14.27406        -0.28597
C         24.62352        17.13938        -0.13444
C         23.39166        19.25970        -0.24402
C         24.62746        18.58063        -0.16241
C         25.81241         1.96537        -0.01893
C         25.84059         3.39714        -0.30732
C         27.03217         1.32774         0.32388
C         27.06590         4.09420        -0.05310
C         25.93741         6.30824        -0.60396
C         25.91756         7.78554        -0.29057
C         27.06832         5.59875         0.13646
C         27.16180         8.49110        -0.21607
C         25.97093        10.61485        -0.17844
C         25.92187        12.04126        -0.49772
C         27.17101         9.89561        -0.21863
C         27.20438        12.81228        -0.58962
C         25.93890        14.94889        -0.28687
C         25.90739        16.41384        -0.00874
C         27.14641        14.28222        -0.41851
C         27.17909        17.20610        -0.03785
C         25.84792        19.31074        -0.14128
C         27.12411        18.69338        -0.12393
C         28.25236         2.00256         0.40676
C         28.26755         3.42932         0.26154
C         29.46902         1.30450         0.72812
C         29.52455         4.13694         0.46218
C         28.41289         6.25383        -0.15157
C         28.45117         7.75912        -0.20927
C         29.62265         5.54262         0.28861
C         29.70002         8.42957         0.20677
C         28.43030        10.64249         0.04655
C         28.50341        12.06702        -0.41660
C         29.67304         9.90041         0.42942
C         29.79410        12.82502        -0.22371
C         28.43705        15.02330        -0.55706
C         28.44096        16.51432        -0.47011
C         29.75515        14.31938        -0.32131
C         29.73703        17.25420        -0.25126
C         28.30748        19.41324        -0.07824
C         29.63992        18.76910        -0.05704
C         30.64406         1.97730         0.90467
C         30.70267         3.40773         0.77147
C         31.92659         4.10799         0.91501
C         30.84468         6.24182         0.42781
C         30.86867         7.71011         0.37453
C         31.99863         5.48009         0.75347
C         32.11704         8.45192         0.56177
C         30.98072        10.65312         0.60166
C         31.00154        12.15514         0.40261
C         32.18984         9.80278         0.61253
C         32.23884        12.97458         0.22306
C         30.84555        15.02930         0.49370
C         30.90485        16.54127         0.30189
C         32.16838        14.31605         0.26758
C         31.95067        17.27567         0.79178
C         30.75253        19.40899         0.65186
C         31.87636        18.70397         0.95508
O          5.46942        12.76004         1.68125
O          7.97539        13.00909         1.36221
O         30.21818        13.52961        -1.43979
O         27.97202        12.29511        -1.74508
O          8.28066        15.66692        -2.32681
O         23.43452         2.30304        -1.50182
O         24.14649        10.30003         1.47200
O          8.49565         6.98793         2.11664
O         30.87640        11.59896         1.73545
O         16.23179        15.48022        -2.13915
O         25.11076        12.28430        -1.71406
O          4.61291        18.40695        -0.90255
O         10.76161         7.07598        -0.62373
O         11.01021        15.68007        -2.43361
O         28.40292        15.86711        -1.77332
O          5.81258         6.33335        -0.99199
O          7.10112        18.41593        -1.41975
O         30.04163        18.16548        -1.34714
O         26.65723        16.72491         1.24580
O         17.93739        10.25804         1.46219
O         10.59538        13.21564         0.98739
O         17.65118        14.79030         1.06728
O         10.46732        10.72432         1.84301
O         28.72905        10.37859         1.46210
O         28.60512         6.91938        -1.44439
O          2.64622        12.64205        -1.55729
H          1.91378        12.94574        -2.13200
O          5.70873        10.42398        -1.15697
H          6.51390        10.71410        -1.64642
O          4.93597        10.24888         2.42721
H          4.09486         9.96331         2.85862
O         26.81592         5.82139         1.55319
H         27.40027         5.22811         2.07029
O          2.27865         3.71118         1.67928
H          2.21348         2.73224         1.67665
O          3.32508         6.72553        -1.56072
H          4.19842         7.01695        -1.91340
O          8.51818        10.47050        -1.25348
H          8.61199         9.50453        -1.40591
O         20.74011        10.53116         1.73663
H         21.53595        10.90652         2.16883
O         20.91649         5.91017         1.25089
H         21.65970         6.39620         1.68294
O         22.17356         6.09190        -2.21050
H         23.00234         5.74512        -2.60819
O         30.43317        14.81655         1.87554
H         31.15339        15.11964         2.46678
O         23.35185         7.59766         1.66883
H         23.56284         8.49551         2.02950
O         13.58994        11.59186        -2.19195
H         13.61371        12.43652        -2.70012
O         13.72456        14.69635        -2.85477
H         14.61265        15.08450        -3.05482
O         19.58444         5.84988        -2.21665
H         20.49867         5.76726        -2.58795
O         11.12527         3.09975         1.96890
H         10.37119         2.52740         2.22042
O         17.10008         4.27170        -2.17932
H         17.87600         4.80709        -2.47879
O          2.98536        12.55247         2.06659
H          3.83417        12.52322         2.57648
O          9.57740        13.33284        -2.47851
H          9.54875        14.03092        -3.17135
O          6.69314        13.50743        -2.08172
H          6.82622        14.18808        -2.77938
O         19.72115        10.23184        -1.77355
H         20.40522         9.66607        -2.18947
O          2.10889        10.06877         2.47466
H          2.13666        11.04031         2.68100
O         26.13509         6.16821        -2.03552
H         27.04227         6.51083        -2.24034
O         12.24646         4.21520        -1.34615
H         11.60561         4.90894        -1.61322
O         13.64952         3.34000         1.92244
H         14.42516         2.78634         2.14875
H          0.30379         1.83878        -1.37271
H          0.20861         4.10852        -0.41408
H          2.42676         0.53582        -1.39393
H          0.28497         5.75046         0.90915
H          0.17750         8.20887         0.98369
H          0.01441        10.20467         0.54106
H          0.02699        12.45427        -0.28321
H          0.07086        14.58593         0.40324
H          0.23108        17.00964         0.85269
H          1.51393        18.92048         1.33166
H          4.88642         0.47961        -1.23726
H          3.51907        20.16930         1.69332
H          7.35622         0.42501        -1.04805
H          6.34043        19.45232         1.81452
H          9.82061         0.38427        -0.91685
H          8.72806        19.73629         1.14474
H         12.30032         0.30482        -0.68939
H         11.07362        19.88355         0.62878
H         14.75476         0.24094        -0.43613
H         13.47370        20.06882         0.18905
H         17.21093         0.26651        -0.14554
H         15.89255        20.23392        -0.26075
H         19.64721         0.30492         0.15865
H         18.42273        20.33585        -0.39400
H         21.91046         0.35412         0.76195
H         20.92952        20.35712        -0.38112
H         24.71439         0.32561         0.88020
H         23.38710        20.35965        -0.26703
H         27.01260         0.24781         0.53487
H         25.79825        20.40965        -0.16961
H         29.43257         0.21040         0.83363
H         28.26762        20.51292        -0.04198
H         31.56801         1.43299         1.14809
H         32.83739         3.54058         1.15527
H         32.97069         5.97465         0.88047
H         33.05494         7.88216         0.61492
H         33.16627        10.29397         0.73390
H         33.20826        12.46866         0.09683
H         33.08280        14.91582         0.14486
H         32.83984        16.76509         1.19207
H         30.65709        20.46429         0.94664
H         32.71913        19.20639         1.45082
