         429
 CSIRO Nanostructure Databank - Neutral Graphene Oxide Data Set
C          1.15405         3.59531        -1.54099
C         -0.03125         4.30362        -1.54208
C          1.13715         6.40207        -1.07136
C         -0.04300         5.69697        -1.32657
C          1.14259         7.86344        -0.88720
C         -0.01880         8.63291        -1.10394
C          1.12446        10.65216        -0.36273
C         -0.02102         9.99748        -0.84764
C          1.04544        12.06035         0.08426
C         -0.05406        12.96398        -0.26366
C          1.23266        14.95967         0.41901
C          0.01664        14.30011        -0.00162
C          1.25777        16.39440         0.75108
C         -0.01084        17.10819         0.87963
C          1.15558        19.20844         1.43959
C         -0.06771        18.40821         1.22613
C          1.16415        20.65633         1.01563
C         -0.05406        21.29018         0.47952
C          1.17806        23.37609         0.13254
C         -0.03710        22.58597         0.09817
C          1.15038        24.75562        -0.08067
C         -0.10778        25.48296        -0.15440
C          1.06011        27.54525        -0.90502
C         -0.16452        26.79099        -0.46866
C          1.06556        29.00563        -0.50599
C          0.11458        29.58548         0.27742
C          1.28643        31.75967         0.35590
C          0.20785        30.94874         0.69021
C          1.41830        33.09730         0.92407
C          0.48173        33.66293         1.81456
C          1.78517        35.71889         2.01354
C          0.65898        34.93982         2.34477
C          2.00917        37.02564         2.57508
C          3.61956         3.57924        -1.32432
C          2.38653         4.26713        -1.29544
C          3.59737         6.33718        -0.74014
C          2.36462         5.67224        -1.01752
C          3.53966         7.73437        -0.23750
C          2.31986         8.53159        -0.48156
C          3.59938        10.62421         0.08168
C          2.33604         9.92294        -0.19969
C          3.62025        12.01174         0.15009
C          2.39252        12.76635         0.37484
C          3.70199        14.88329         0.52256
C          2.41562        14.23121         0.41628
C          3.74564        16.27377         1.12704
C          2.43139        17.02683         1.07218
C          3.69663        19.24263         1.17707
C          2.46960        18.45256         1.62699
C          3.68696        20.59775         0.84962
C          2.44624        21.33265         0.72351
C          3.66972        23.40727         0.21273
C          2.43267        22.67762         0.34702
C          3.64079        24.80769         0.01008
C          2.37973        25.51628        -0.14691
C          3.54252        27.69085        -0.38586
C          2.34310        26.88783        -0.40856
C          3.53895        29.04427        -0.66350
C          2.25210        29.79550        -0.99363
C          3.46505        31.97801        -0.82150
C          2.35189        31.22021        -0.46741
C          3.48702        33.37012        -0.39470
C          2.55359        33.87515         0.56159
C          3.92318        35.93363         0.80471
C          2.74124        35.18714         1.10000
C          4.14536        37.23400         1.39738
C          3.13163        37.75029         2.27942
C          6.08815         3.58773        -1.22546
C          4.84226         4.26457        -1.15985
C          6.08986         6.47203        -0.93444
C          4.81025         5.67306        -0.87378
C          6.09975         7.68061        -0.01891
C          4.81279         8.43787         0.11565
C          6.09662        10.57365         0.30909
C          4.86487         9.91300         0.13506
C          6.07109        12.05406         0.64876
C          4.91867        12.75113        -0.10019
C          6.16450        14.91610         0.25440
C          4.86339        14.20560         0.28849
C          6.17776        16.40594         0.34217
C          4.84785        17.14976         0.49018
C          6.20595        19.22783         0.79034
C          4.99672        18.48189         1.27453
C          6.18288        20.62396         0.65270
C          4.92894        21.31910         0.61090
C          6.15138        23.44373         0.21015
C          4.91819        22.71546         0.34705
C          6.09801        24.84988         0.01252
C          4.86217        25.52661        -0.03665
C          6.08831        27.79334         0.05437
C          4.80656        27.00387         0.00308
C          6.06453        29.30042        -0.21922
C          4.79323        29.79655        -0.92268
C          6.07742        31.98657        -1.34664
C          4.73759        31.27992        -1.26384
C          6.20770        33.27674        -1.73365
C          4.44506        34.28602        -0.85713
C          6.21565        35.99974        -0.18723
C          4.82947        35.44066        -0.15646
C          6.34199        37.41455         0.26582
C          5.27583        37.96990         1.04477
C          8.54619         3.54546        -1.01791
C          7.32730         4.25938        -1.02694
C          8.57807         6.36097        -0.66767
C          7.35680         5.67345        -0.81697
C          8.61348         7.77886        -0.39548
C          7.38388         8.43604         0.07685
C          8.59106        10.60055         0.22970
C          7.35016         9.89960         0.26399
C          8.61524        12.05351         0.42582
C          7.40305        12.76892         0.48749
C          8.63774        14.90424         0.61638
C          7.42295        14.17879         0.49150
C          8.65429        16.36153         0.71142
C          7.45053        17.08305         0.67531
C          8.66009        19.21504         0.77584
C          7.42710        18.50890         0.73737
C          8.65167        20.64714         0.73136
C          7.42673        21.34051         0.57070
C          8.64016        23.46198         0.44310
C          7.41507        22.76083         0.38513
C          8.67264        24.88372         0.09232
C          7.34754        25.61910        -0.15984
C          8.59988        27.79028        -0.11296
C          7.36266        27.07224        -0.06885
C          8.59965        29.14891        -0.40918
C          7.34627        29.78214        -0.87022
C          8.62699        31.94278        -1.35526
C          7.34427        31.19076        -1.36450
C          8.66374        33.29068        -1.47400
C          7.44499        34.11727        -1.78062
C          8.65948        36.17871        -0.96232
C          7.42174        35.34892        -0.82453
C          8.66516        37.55518        -0.60562
C          7.48953        38.13934        -0.00331
C         11.00453         3.49746        -0.83019
C          9.78544         4.21355        -0.88603
C         11.05612         6.34284        -0.75932
C          9.81070         5.64374        -0.76529
C         11.05998         7.79902        -0.66384
C          9.80688         8.50596        -0.40855
C         11.01266        10.70371        -0.31363
C          9.78313         9.91445        -0.10888
C         11.09026        12.09255         0.21212
C          9.84573        12.77488         0.50385
C         11.11679        14.89881         0.96101
C          9.85062        14.18109         0.69965
C         11.16911        16.37635         0.98023
C          9.89928        17.07692         0.89024
C         11.06277        19.23011         1.40417
C          9.86527        18.48522         0.91409
C         11.11818        20.68684         1.01114
C          9.89571        21.36478         0.79951
C         11.11356        23.49389         0.75684
C          9.88137        22.78908         0.69267
C         11.09042        24.95337         0.92479
C          9.81648        25.70186         0.58171
C         11.06198        27.83672         0.22920
C          9.86161        27.13221         0.22209
C         11.11318        29.21420        -0.17405
C          9.82164        30.00462        -0.22346
C         11.16536        31.91356        -1.09360
C          9.89631        31.10908        -1.27389
C         11.15364        33.31904        -1.53331
C          9.90978        34.04326        -1.09027
C         11.07371        36.25005        -1.39837
C          9.87575        35.53648        -1.30391
C         11.08381        37.66727        -1.13102
C          9.86646        38.28020        -0.71072
C         13.43456         3.46929        -0.45068
C         12.23465         4.17414        -0.72163
C         13.55772         6.29262        -0.94807
C         12.25739         5.61083        -0.79057
C         13.53617         7.80599        -0.92248
C         12.25846         8.48378        -0.66874
C         13.58534        10.62255        -0.30811
C         12.30025         9.94971        -0.59173
C         13.49296        12.09609        -0.36385
C         12.28700        12.76743         0.16310
C         13.63815        14.94173         0.39800
C         12.42021        14.14551         0.66927
C         13.67133        16.32748         0.76106
C         12.41355        17.04478         1.09163
C         13.44325        19.30077         1.59700
C         12.37249        18.49715         1.24157
C         13.59120        20.70738         1.25926
C         12.34139        21.39403         1.00097
C         13.61151        23.50428         0.71986
C         12.35252        22.81017         0.81607
C         13.63009        24.93329         0.63376
C         12.38820        25.69071         0.91347
C         13.59764        27.80898         0.14872
C         12.34386        27.17538         0.58204
C         13.58046        29.19208        -0.19464
C         12.32771        29.87522        -0.37387
C         13.59567        32.01890        -0.82217
C         12.34454        31.27794        -0.79844
C         13.66329        33.40668        -1.20006
C         12.43098        34.07150        -1.69523
C         13.55158        36.29580        -1.20054
C         12.36857        35.59617        -1.87645
C         13.59062        37.79849        -1.59485
C         12.27200        38.42216        -1.23549
C         15.63018         3.50008         0.56927
C         14.64795         4.13966        -0.15174
C         15.73919         6.34881         0.33825
C         14.88428         5.55383        -0.65521
C         15.56030         7.67523         0.44200
C         14.85552         8.50653        -0.58661
C         16.06237        10.71899        -0.03202
C         14.78481         9.97301        -0.18410
C         16.02965        12.06479        -0.35951
C         14.76702        12.84240        -0.48862
C         15.97306        14.99369        -0.37661
C         14.78457        14.29132        -0.12980
C         16.04647        16.37013        -0.05894
C         14.93409        16.98089         0.58645
C         16.12800        19.18200         0.58935
C         15.25061        18.28843         1.11467
C         16.17842        20.59508         1.18477
C         14.83147        21.34562         1.06711
C         16.06425        23.44708         0.49250
C         14.84639        22.75711         0.73597
C         16.03713        24.85405        -0.06512
C         14.80395        25.64543         0.32744
C         16.02712        27.77986        -0.23950
C         14.78574        27.05634         0.12785
C         16.05151        29.25155        -0.10425
C         14.79318        29.93728        -0.21687
C         15.95279        32.13094        -0.09941
C         14.75945        31.34767        -0.40943
C         16.01218        33.53940        -0.49526
C         14.84531        34.14571        -1.03354
C         15.99927        36.36397        -0.70470
C         14.90825        35.60458        -1.44445
C         15.86530        37.78459        -0.48278
C         14.69058        38.47653        -0.83733
C         18.05312         3.42570         1.22780
C         16.81033         4.19679         1.11631
C         18.21832         6.39011         1.15913
C         16.87385         5.70718         1.07762
C         18.46827         7.80872         1.07764
C         17.41779         8.84018         0.91031
C         18.59618        10.87442         0.00824
C         17.37595        10.09049         0.29283
C         18.54342        12.15187        -0.61665
C         17.23611        12.78269        -0.79172
C         18.44776        15.04628        -0.88965
C         17.17552        14.31478        -0.88728
C         18.43862        16.46471        -0.66925
C         17.24539        17.12166        -0.31716
C         18.56886        19.16047         0.34364
C         17.24949        18.64339        -0.26938
C         18.55635        20.67607         0.35883
C         17.37170        21.35656         0.64132
C         18.54835        23.50444         0.36618
C         17.32098        22.77931         0.51250
C         18.54144        24.94844         0.30933
C         17.32571        25.61578         0.15423
C         18.57524        27.82542         0.05338
C         17.34456        27.04774        -0.15882
C         18.53981        29.24493         0.02093
C         17.26740        29.92756        -0.02983
C         18.51207        32.15080         0.03292
C         17.26552        31.38730         0.14918
C         18.44891        33.57303        -0.00095
C         17.20927        34.25317        -0.28852
C         18.32543        36.43501         0.10277
C         17.17369        35.69938        -0.33112
C         18.21302        37.85149         0.28563
C         16.97441        38.48844         0.06269
C         19.22376         4.07375         1.38271
C         20.64256         6.01998         1.52826
C         19.33276         5.52339         1.36996
C         20.87908         7.38223         1.51085
C         19.79578         8.23985         1.29284
C         21.04946        11.11821         0.00754
C         19.88135        10.47544         0.44256
C         20.97071        12.30180        -0.71202
C         19.71078        12.90615        -0.91954
C         20.81789        15.11949        -1.40485
C         19.63906        14.35035        -1.14301
C         20.82748        16.48511        -1.26259
C         19.68505        17.19652        -0.78209
C         20.93806        19.30972        -0.46837
C         19.76195        18.54777        -0.36644
C         20.95705        20.66794        -0.17437
C         19.78172        21.38087         0.16986
C         20.99507        23.56061         0.32201
C         19.78700        22.81587         0.29910
C         20.98934        24.94580         0.36460
C         19.78591        25.67721         0.33067
C         20.97049        27.89365         0.43047
C         19.78620        27.12967         0.28431
C         20.95034        29.27775         0.34774
C         19.75099        29.99491         0.14913
C         20.92433        32.23520         0.15373
C         19.74210        31.45853         0.09483
C         20.87121        33.62255         0.22390
C         19.64909        34.32500         0.16704
C         20.67852        36.54597         0.71349
C         19.57021        35.77573         0.32131
C         20.56556        37.93347         0.90723
C         19.36003        38.58381         0.70772
O         13.59920         7.08146        -2.19439
O          5.34760        27.49601         1.30821
O          1.00737        20.25334         2.45704
O          8.22978        25.14840        -1.26576
O          1.54415        12.21730         1.44311
O         11.91420        14.29514         2.03894
O         16.67069        27.31905        -1.49002
O         12.46722        26.68619         1.97207
O         16.43761        31.86055         1.26659
O         20.07168         9.58748         1.50369
O          6.82167         7.60563         1.22528
O          5.07315        34.01978        -2.08141
O         13.95416        12.58301        -1.69315
O         16.19274         8.40534         1.45238
O         16.99954        13.46777        -2.06975
O         10.15934        25.39379         1.97110
O         11.54545        10.59028        -1.68448
O          7.29352        30.05010        -2.30526
O         16.48950         5.02402         2.31698
O         11.73658        33.46189        -2.86787
O         14.51757        18.68337         2.24492
O          4.73942        30.25422        -2.32884
O          6.27176        15.75873        -0.97962
O          7.12393        35.05459         0.57839
O          3.97159         7.85263         1.17769
O          4.39292        17.51314        -0.82593
H          4.80984        16.87682        -1.45616
O         10.86955        19.26452         2.87898
H         10.78023        18.33615         3.18484
O         12.42143        35.84790        -3.30288
H         11.99586        35.06919        -3.73802
O         13.27739        36.21646         0.21376
H         13.97170        36.71578         0.69429
O         15.23703        35.64743        -2.85271
H         15.01212        36.56096        -3.17004
O         18.64731        18.71808         1.72386
H         18.03609        19.28811         2.25495
O          6.09593         7.07567        -2.28580
H          6.13693         6.34221        -2.93620
O          5.18322        12.68969        -1.52565
H          5.30656        11.74797        -1.77026
O          4.07172        16.03296         2.52107
H          3.30976        15.57448         2.93334
O          5.30462        18.23789         2.66815
H          4.45904        17.99075         3.12235
O         13.87228        37.97594        -3.02497
H         13.16131        37.49894        -3.51888
O          1.08256        27.44359        -2.36025
H          1.48360        28.28201        -2.71015
O         15.61423         5.42932        -1.89175
H         15.47473         6.27357        -2.38307
O          9.98989        33.92086         0.36994
H          9.15511        34.27132         0.75578
O          6.03409        29.96466         1.07133
H          5.61721        29.33504         1.70758
O         15.70219         8.45199        -1.76798
H         15.21977         8.89474        -2.49921
O         16.48779        20.44574         2.61055
H         15.75854        19.90380         2.99956
O          7.57978        34.64614        -3.12479
H          6.67461        34.79007        -3.47607
O          2.61795        18.28720         3.08161
H          2.26042        19.11676         3.47977
O         17.18693        19.14831        -1.62524
H         16.40203        18.76061        -2.06439
O          5.73626        12.15066         2.06119
H          6.30141        11.52182         2.55680
O          2.13456        29.88864        -2.45270
H          3.04335        30.09285        -2.79920
O         15.93469        24.67897        -1.53034
H         16.11011        25.57289        -1.92144
O          9.67225        30.66960         1.06662
H          9.67081        29.98426         1.76763
O         10.04243        30.45031        -2.55645
H         10.08008        31.13664        -3.25518
H          1.15987         2.51329        -1.73525
H         -0.98157         3.78435        -1.72959
H         -1.00848         6.21929        -1.35963
H         -0.94673         8.15948        -1.45015
H         -0.95294        10.56225        -0.98720
H         -0.95448        12.55799        -0.74621
H         -0.86177        14.91632        -0.23765
H         -0.94879        16.55548         0.74085
H         -1.04011        18.89898         1.36904
H         -0.99282        20.72099         0.45391
H         -0.96492        23.04552        -0.26771
H         -1.03952        24.95179         0.08527
H         -1.14142        27.29081        -0.54374
H         -0.74337        28.99917         0.63753
H         -0.58948        31.33480         1.33865
H         -0.41379        33.09787         2.10695
H         -0.08802        35.34400         3.04325
H          1.25592        37.43422         3.26478
H          3.62873         2.49537        -1.51254
H          3.28107        38.74421         2.72610
H          6.09635         2.50294        -1.40562
H          5.39272        38.99494         1.42835
H          8.53391         2.45137        -1.12973
H          7.55662        39.17924         0.35187
H         10.98970         2.39820        -0.84117
H          9.87932        39.34114        -0.41882
H         13.37049         2.38873        -0.24985
H         12.22803        39.50867        -1.06193
H         15.48684         2.44535         0.85492
H         14.63542        39.56231        -0.66676
H         18.00971         2.32964         1.15490
H         16.88559        39.57092         0.23827
H         20.16139         3.50671         1.48029
H         21.46686         5.31332         1.69769
H         21.87669         7.79929         1.69513
H         22.02358        10.72461         0.32555
H         21.89729        12.82255        -0.98459
H         21.73893        14.61553        -1.72714
H         21.76133        17.02677        -1.46393
H         21.86088        18.85328        -0.85287
H         21.90203        21.21148        -0.30638
H         21.96166        23.04007         0.32035
H         21.95288        25.47221         0.38313
H         21.93136        27.39398         0.61095
H         21.89885        29.81929         0.46260
H         21.90747        31.74678         0.18805
H         21.81579        34.17623         0.31568
H         21.65076        36.06702         0.89215
H         21.44961        38.50391         1.22512
H         19.27928        39.66937         0.86131
