         620
 CSIRO Nanostructure Databank - Neutral Graphene Oxide Data Set
C         22.91890        27.58100         1.30121
C         22.93936        28.96176         1.30278
C         23.16551        31.98297         1.81913
C         23.33175        33.32702         1.96529
C         24.27587        35.85706         3.20535
C         24.67355        37.10583         3.68797
C         24.73605        41.11720         3.54293
C         24.45694        42.38000         3.03347
C         23.98951        45.08616         1.96946
C         23.96205        46.47057         1.67883
C         25.31464        24.71366         1.19347
C         24.13448        25.41948         1.24570
C         25.37373        27.53987         1.20483
C         24.12996        26.84437         1.24566
C         25.37538        28.96615         1.19123
C         24.16716        29.66877         1.25603
C         25.41288        31.87698         0.67524
C         24.14503        31.15949         1.10328
C         25.49766        33.35186         0.81725
C         24.47525        34.05552         1.46166
C         25.38610        36.39146         1.14650
C         24.65183        35.45482         1.91051
C         25.94777        37.59894         1.63088
C         25.50894        37.94109         2.93139
C         26.26322        40.64155         1.66496
C         25.62563        40.27074         2.87066
C         26.11791        42.01269         1.27158
C         25.15871        42.86509         1.91291
C         25.78079        44.70594         0.33275
C         24.93983        44.22076         1.43193
C         25.77578        46.22417         0.03097
C         24.89543        47.07061         0.84000
C         26.02482        49.03831        -0.08156
C         25.05384        48.48874         0.71355
C         27.82315        23.19028         0.90491
C         27.81992        24.59835         1.05324
C         26.57965        25.37074         1.15407
C         27.85328        27.50033         1.17157
C         26.59915        26.78723         1.18074
C         27.91046        28.88833         1.04895
C         26.67809        29.72598         1.31442
C         27.86942        31.75381         0.45629
C         26.68063        31.10759         0.67958
C         27.92419        33.19025         0.25085
C         26.74391        33.95458         0.38491
C         28.02830        36.07378         0.12157
C         26.83023        35.34617         0.10735
C         28.06140        37.52753         0.25613
C         27.03751        38.29928         0.91077
C         28.13965        40.35520         0.11200
C         27.15390        39.74106         0.92034
C         28.14626        41.77844        -0.12486
C         27.06250        42.58337         0.34459
C         28.01360        44.56484        -0.78109
C         26.98185        43.94330        -0.03693
C         27.99699        45.98405        -1.07892
C         26.95742        46.82175        -0.60500
C         28.02092        48.82773        -1.58061
C         27.01710        48.23927        -0.76862
C         28.05165        50.24964        -1.81533
C         30.27214        23.11052         0.83200
C         29.00563        22.47432         0.80728
C         30.29531        24.53372         0.96943
C         29.07793        25.25354         1.09411
C         30.41523        27.45157         1.08357
C         29.09061        26.71338         1.30049
C         30.37305        28.89122         0.75192
C         29.15263        29.56217         0.79189
C         30.39923        31.66158        -0.02325
C         29.10907        30.95629         0.29739
C         30.37771        33.14511        -0.14541
C         29.15968        33.86971        -0.01058
C         30.43120        35.96507        -0.40751
C         29.21795        35.30130        -0.06599
C         30.43980        37.40371        -0.51363
C         29.27258        38.16265        -0.15005
C         30.38866        40.21924        -0.90128
C         29.27854        39.59106        -0.33662
C         30.26128        41.57585        -1.52709
C         29.18220        42.38994        -0.85726
C         30.23459        44.37342        -1.86310
C         29.15010        43.77241        -1.14185
C         30.00527        45.65642        -2.38262
C         29.03583        46.54444        -1.87812
C         30.42040        48.76710        -2.59029
C         29.06766        47.99319        -2.19466
C         30.45769        50.29831        -2.62516
C         29.12969        50.92211        -2.28465
C         32.75610        20.26445         0.46692
C         31.54728        20.97839         0.54845
C         32.81891        23.07515         0.94108
C         31.50535        22.36096         0.70936
C         32.76910        24.51628         0.52574
C         31.55568        25.24359         0.75149
C         32.68204        27.36093         0.00859
C         31.54394        26.63773         0.64828
C         32.80923        28.76871         0.55822
C         31.63525        29.58219         0.58950
C         32.85572        31.76271         0.17655
C         31.67665        30.99104         0.33231
C         32.78296        33.00672        -0.64033
C         31.55362        33.80878        -0.49235
C         32.82386        35.87670        -1.10539
C         31.59998        35.21768        -0.67479
C         32.81412        37.32467        -1.22031
C         31.62845        38.04845        -0.90414
C         32.83482        40.18191        -1.54581
C         31.71349        39.54272        -0.78110
C         32.78488        41.60609        -1.77329
C         31.56852        42.32746        -1.68088
C         32.77730        44.44878        -2.02651
C         31.54064        43.72121        -1.93979
C         32.88539        45.90121        -2.11847
C         31.85357        46.70793        -2.64480
C         32.85768        48.76231        -1.88810
C         31.72482        48.08749        -2.41752
C         32.82664        50.20853        -1.68224
C         31.62513        50.92628        -1.87024
C         32.71029        52.92731        -0.99035
C         31.59292        52.28733        -1.52482
C         35.31436        18.76028         0.36289
C         35.25298        20.16134         0.26223
C         34.01347        20.90662         0.40314
C         35.25094        23.02250         0.21562
C         34.04607        22.33477         0.44623
C         35.26236        24.47999         0.08630
C         33.98223        25.19606         0.19086
C         35.17066        27.34286        -0.24392
C         33.95970        26.58129         0.06944
C         35.27285        28.67454         0.38831
C         34.07797        29.25050         0.87873
C         35.34203        32.02118         0.30309
C         34.11746        31.43104         0.70385
C         35.34572        33.17223        -0.59343
C         34.03864        33.70475        -1.04681
C         35.22671        35.79261        -1.81561
C         33.99157        35.15557        -1.31959
C         35.22239        37.29592        -1.92178
C         33.99204        38.02328        -1.56245
C         35.24219        40.09178        -2.20994
C         33.99209        39.44175        -1.74528
C         35.24229        41.60202        -2.23836
C         33.98986        42.31778        -1.98438
C         35.26852        44.40713        -1.77438
C         34.00998        43.73003        -1.92615
C         35.24627        45.78998        -1.18455
C         34.03177        46.58460        -1.63882
C         35.20091        48.69080        -1.04273
C         34.00189        47.98923        -1.54370
C         35.24650        50.14550        -1.24543
C         34.01843        50.90668        -1.32071
C         35.10181        52.95177        -0.27564
C         33.95767        52.27996        -0.91652
C         34.98308        53.83037         0.83076
C         37.76142        18.72621         0.16936
C         36.53202        18.07151         0.32547
C         37.75398        20.16395         0.00032
C         36.48098        20.87990         0.07709
C         37.75138        22.99107        -0.05529
C         36.45393        22.27835         0.00159
C         37.74716        24.48062        -0.09655
C         36.44036        25.16004        -0.19251
C         37.73648        27.38589        -0.48548
C         36.44779        26.60479        -0.49939
C         37.74059        28.78896         0.02620
C         36.53476        29.24559         0.60328
C         37.79967        31.83623         0.01018
C         36.58814        31.42545         0.60225
C         37.82387        33.30923        -0.32412
C         36.51190        33.79617        -0.90851
C         37.79712        35.84437        -1.48371
C         36.55276        35.00972        -1.81846
C         37.70126        37.30944        -1.36823
C         36.50652        38.02836        -1.81758
C         37.76907        40.15308        -1.97325
C         36.53274        39.40104        -1.95553
C         37.70899        41.58341        -2.12743
C         36.52231        42.30783        -2.09723
C         37.74804        44.44840        -1.80716
C         36.50379        43.73859        -1.89603
C         37.77471        45.88512        -1.59861
C         36.54965        46.53162        -1.37555
C         37.78963        48.69621        -1.13922
C         36.53569        47.94876        -1.05722
C         37.74992        50.09696        -1.05810
C         36.49440        50.72402        -1.36079
C         37.57724        52.87282         0.12146
C         36.41778        52.64370        -0.65827
C         37.42716        53.82556         1.16929
C         36.11793        54.29752         1.47710
C         40.29410        15.93549         0.43155
C         39.09140        16.60710         0.44049
C         40.23510        18.68179        -0.11599
C         39.02702        18.00389         0.16728
C         40.18554        20.10030        -0.49308
C         38.94167        20.83589        -0.27226
C         40.25775        23.02569        -0.41752
C         38.94521        22.29079        -0.66506
C         40.23487        24.47231        -0.39481
C         39.02284        25.15869        -0.42266
C         40.26366        27.34782        -0.13651
C         39.01963        26.62571        -0.51015
C         40.20424        28.83874        -0.06920
C         38.91232        29.58424        -0.05012
C         40.23397        31.71108        -0.34708
C         38.95305        31.01759        -0.10111
C         40.26066        33.08918        -0.64927
C         39.00890        33.70595        -1.20996
C         40.25034        35.95195        -1.07265
C         39.00314        35.22088        -1.27897
C         40.27991        37.37366        -1.24057
C         39.01683        38.10846        -1.29438
C         40.27798        40.14695        -1.90816
C         39.01744        39.49929        -1.76784
C         40.28275        41.55513        -2.31205
C         38.95731        42.32251        -2.37092
C         40.17350        44.46313        -2.24096
C         38.96357        43.77638        -2.11116
C         40.33154        45.83725        -1.57080
C         39.02376        46.60920        -1.56984
C         40.21901        48.79387        -1.16307
C         39.02863        48.00890        -1.29974
C         40.16587        50.15473        -0.76823
C         38.91629        50.86037        -0.71619
C         39.99249        52.69582         0.52459
C         38.82941        52.16647        -0.10151
C         39.88303        53.78552         1.45751
C         38.60908        54.29625         1.84611
C         39.66454        55.82595         3.42717
C         38.53191        55.30250         2.85037
C         42.76316        15.93824         0.23737
C         41.51574        16.62047         0.19117
C         42.73555        18.74026        -0.22179
C         41.49062        18.02013        -0.07603
C         42.75372        20.16097        -0.36042
C         41.49145        20.87859        -0.60595
C         42.73200        23.04862        -0.37740
C         41.46810        22.35097        -0.44185
C         42.73138        24.48611        -0.38562
C         41.50271        25.19399        -0.40213
C         42.73816        27.32242        -0.38229
C         41.53269        26.61558        -0.37123
C         42.73185        28.79480        -0.55398
C         41.44827        29.56037        -0.44783
C         42.70713        31.70970        -0.33011
C         41.47034        31.02341        -0.29987
C         42.68023        33.12390        -0.35537
C         41.46711        33.82154        -0.61278
C         42.64260        36.06763        -0.38963
C         41.43750        35.25574        -0.78533
C         42.70590        37.44283        -1.00542
C         41.50287        38.10885        -1.29769
C         42.78426        40.23985        -1.63915
C         41.52258        39.52212        -1.63207
C         42.89163        41.65898        -2.22737
C         41.51595        42.34180        -2.22537
C         43.15139        44.77576        -2.09121
C         41.32015        43.66560        -2.56959
C         42.92833        46.06426        -1.64120
C         41.58668        46.70499        -1.85623
C         42.74482        48.84389        -0.97210
C         41.52127        48.15731        -1.45408
C         42.63394        50.21271        -0.59425
C         41.38638        50.86631        -0.44700
C         42.44360        52.77469         0.74805
C         41.28866        52.13408         0.23513
C         42.35305        53.83729         1.69936
C         41.05964        54.32092         2.07058
C         42.12901        55.91448         3.60170
C         40.95193        55.35976         3.03918
C         43.94499        16.62280         0.06998
C         45.21132        18.75758        -0.25093
C         43.96528        18.03218        -0.13738
C         45.20755        20.18416        -0.28281
C         43.96047        20.89061        -0.31183
C         45.20630        23.05167        -0.33403
C         43.95449        22.33752        -0.35471
C         45.20715        24.49298        -0.31733
C         43.97140        25.20281        -0.35009
C         45.20608        27.36776        -0.34492
C         43.97725        26.63206        -0.36421
C         45.20876        28.81829        -0.37398
C         43.99267        29.54682        -0.41485
C         45.21168        31.65428        -0.38206
C         43.97113        30.96113        -0.34821
C         45.23915        33.12247        -0.19201
C         43.92155        33.88476        -0.15596
C         45.14048        36.01391        -0.49943
C         43.94136        35.31866        -0.45888
C         45.11981        37.45170        -0.68291
C         43.93286        38.15708        -0.96778
C         45.21653        40.32041        -1.03362
C         43.95919        39.58996        -1.23256
C         45.23772        41.76356        -1.20174
C         44.08597        42.46903        -1.63580
C         45.30347        44.60537        -1.11708
C         44.15920        43.89648        -1.59714
C         45.27509        46.03965        -0.96239
C         44.05717        46.74924        -1.09549
C         45.18667        48.86410        -0.48195
C         43.97745        48.16772        -0.85386
C         45.14937        50.25863        -0.26404
C         43.87381        50.96285        -0.38752
C         44.97004        52.86325         0.97864
C         43.76883        52.35328         0.30962
C         44.84769        53.92647         1.90430
C         43.52482        54.42002         2.26872
C         43.37607        55.46264         3.21594
C         47.63732        18.78867        -0.46824
C         46.44922        18.08360        -0.34801
C         47.65826        20.19264        -0.44434
C         46.44234        20.90374        -0.35180
C         47.67904        23.07360        -0.27421
C         46.43241        22.35174        -0.34297
C         47.67184        24.51035        -0.17517
C         46.42924        25.21855        -0.24990
C         47.66346        27.37620        -0.17047
C         46.42601        26.65534        -0.26567
C         47.68285        28.80206        -0.23886
C         46.44181        29.53025        -0.39524
C         47.69669        31.67736        -0.71354
C         46.42175        30.94968        -0.49495
C         47.75459        33.21470        -0.78403
C         46.44062        33.90752        -0.49607
C         47.69755        36.05440        -0.56811
C         46.40289        35.27848        -0.47490
C         47.54835        37.44965         0.02273
C         46.31158        38.21459        -0.30675
C         47.63678        40.34933        -0.41971
C         46.36580        39.66764        -0.56546
C         47.69642        41.75072        -0.65472
C         46.47086        42.47397        -0.95233
C         47.76995        44.66600        -1.15676
C         46.50102        43.87864        -0.95303
C         47.71881        46.07318        -0.58293
C         46.49187        46.74874        -0.62845
C         47.63070        48.90687        -0.19212
C         46.43299        48.17052        -0.39856
C         47.57252        50.31162        -0.01015
C         46.32935        50.98568         0.04965
C         47.40541        52.95345         1.13852
C         46.23815        52.31296         0.64966
C         47.27906        54.02170         2.04417
C         46.03172        54.47543         2.44908
C         50.16793        20.23983        -0.08352
C         48.96030        20.92521        -0.67201
C         50.12999        23.07928        -0.08099
C         48.90712        22.38321        -0.28027
C         50.12581        24.50621         0.04905
C         48.88943        25.22108        -0.02806
C         50.08386        27.38364         0.22610
C         48.88385        26.66658         0.00428
C         50.11558        28.79870         0.16447
C         48.90819        29.49189        -0.09364
C         50.18438        31.69012        -0.03050
C         48.96357        30.93500        -0.39748
C         50.14663        33.08442         0.11945
C         48.80480        33.79550         0.19036
C         50.03340        35.96240         0.32666
C         48.89688        35.29827         0.00452
C         50.07433        37.44815         0.44073
C         48.80816        38.22346         0.26342
C         50.07854        40.33024         0.03741
C         48.84348        39.66109        -0.07864
C         50.11349        41.75449        -0.12907
C         48.93466        42.43540        -0.52001
C         50.24403        44.63406        -0.35126
C         49.02948        43.88184        -0.82101
C         50.15200        46.08915        -0.09982
C         48.92591        46.77564        -0.25858
C         50.09825        48.91314         0.10938
C         48.90284        48.21151        -0.10529
C         50.16505        50.41303        -0.08734
C         48.81348        51.11074         0.05222
C         49.97011        53.10774         1.16052
C         48.72478        52.49912         0.65032
C         51.30604        20.92446         0.15629
C         52.59066        23.07789         0.13490
C         51.36566        22.37059         0.04448
C         52.58975        24.51005         0.23241
C         51.35262        25.19022         0.25254
C         52.62585        27.39425         0.56776
C         51.31110        26.63406         0.52884
C         52.59498        28.84901         0.34582
C         51.37766        29.52687         0.23984
C         52.60033        31.68509         0.40178
C         51.38681        30.97028         0.18412
C         52.55920        33.09785         0.54167
C         51.33314        33.77992         0.44261
C         52.56965        36.02569         0.72799
C         51.27446        35.23892         0.70293
C         52.56339        37.47561         0.44278
C         51.35589        38.16752         0.31620
C         52.54338        40.27441         0.41784
C         51.32393        39.59053         0.24823
C         52.48632        41.72204         0.67910
C         51.31464        42.48458         0.21830
C         52.57606        44.61433         0.51479
C         51.37174        43.87451         0.22103
C         52.53496        46.03615         0.48586
C         51.33576        46.77241         0.28077
C         52.49551        48.95125         0.67345
C         51.32533        48.22249         0.33961
C         52.48986        50.37056         0.84800
C         51.28464        51.07883         0.69511
C         51.15370        52.43407         1.13858
C         55.03486        23.09236         0.07436
C         53.85308        22.40162         0.10105
C         55.07426        24.52351         0.10936
C         53.84665        25.23273         0.24551
C         55.07048        27.37785         0.15709
C         53.86949        26.65439         0.30612
C         55.07167        28.82478         0.19810
C         53.84435        29.54598         0.29264
C         55.09033        31.65467         0.39897
C         53.85380        30.96745         0.38936
C         55.12599        33.09622         0.69874
C         53.80654        33.84813         0.82225
C         55.04928        35.99145         0.47610
C         53.84759        35.30496         0.61510
C         55.05230        37.44522         0.41592
C         53.81059        38.16311         0.42246
C         55.03621        40.30223         0.54516
C         53.78629        39.58865         0.47418
C         55.05553        41.72268         0.71280
C         53.79650        42.46263         0.89176
C         55.04313        44.58546         0.91599
C         53.80569        43.92620         0.73725
C         55.08793        46.06173         0.84212
C         53.79801        46.78643         0.60664
C         55.00516        48.94681         1.34306
C         53.71704        48.21199         1.03747
C         54.93902        50.41387         1.22509
C         53.75119        51.05312         1.09543
C         57.56664        24.57161        -0.13883
C         56.31120        25.24456         0.00041
C         57.52922        27.39949        -0.10472
C         56.30301        26.66964         0.00891
C         57.53494        28.82862        -0.06161
C         56.29572        29.53824         0.09780
C         57.54448        31.69676         0.08873
C         56.30346        30.96448         0.18905
C         57.54913        33.13277         0.14966
C         56.34033        33.86418         0.38770
C         57.53727        36.00530         0.22883
C         56.30953        35.26929         0.37345
C         57.53621        37.43699         0.24603
C         56.27273        38.16366         0.33290
C         57.49682        40.36500         0.23522
C         56.24959        39.58745         0.38244
C         57.53037        41.77707         0.65741
C         56.26562        42.44539         0.80665
C         57.49294        44.51819         1.44028
C         56.23692        43.85124         1.05330
C         57.49764        46.05694         1.60753
C         56.27340        46.81199         1.30945
C         57.56341        48.87201         1.44736
C         56.30048        48.19645         1.31746
C         58.74227        25.26748        -0.26286
C         59.96605        27.42380        -0.35752
C         58.75551        26.69463        -0.24603
C         59.96474        28.80348        -0.32062
C         58.75927        29.53955        -0.16736
C         59.95811        31.73551        -0.25352
C         58.75738        30.99144        -0.11031
C         59.96387        33.11283        -0.19445
C         58.76833        33.84748         0.01380
C         59.97748        36.01910         0.06510
C         58.76585        35.29196         0.10235
C         59.97693        37.39943         0.13354
C         58.77062        38.12307         0.20564
C         60.00814        40.33712         0.60791
C         58.81916        39.60552         0.15988
C         59.97671        41.67867         0.82594
C         58.75268        42.44620         0.82473
C         59.94813        44.59788         1.32745
C         58.77646        43.85305         1.18934
C         59.95688        46.00060         1.49335
C         58.78459        46.75415         1.51817
C         58.75366        48.18302         1.47273
O         54.70723        46.54901        -0.52608
O         35.16140        40.78617        -3.48551
O         51.84268        35.66128         1.97780
O         49.31925        37.93466         1.61452
O         40.29855        28.02397         1.17192
O         41.96379        29.16981        -1.77330
O         46.62751        37.70753         1.10418
O         41.55301        47.70014        -2.89479
O         43.92882        52.21326        -1.13324
O         35.04590        36.45240        -3.12942
O         57.38641        45.15570         2.76126
O         25.64571        36.04272        -0.18874
O         24.38895        31.48247        -0.31323
O         42.38338        44.33977        -3.15496
O         34.15513        30.41514         1.67576
O         36.62773        30.33507         1.48795
O         40.79296        20.40789        -1.82573
O         51.93980        26.99610         1.81002
O         25.96388        39.09618         3.56061
O         33.29924        32.86349        -2.01362
O         39.59753        41.84351        -3.59668
O         38.19183        37.86048        -0.09670
O         35.75687        48.22595         0.23419
O         29.92469        27.13356         2.43362
O         29.62421        31.01516        -1.09131
O         44.62583        33.52010         1.08479
O         54.53694        33.40446         2.01367
O         48.50514        31.12635        -1.81448
O         38.45321        27.19212        -1.75390
O         48.73816        52.29475        -0.81792
O         50.08643        44.23073        -1.78470
O         37.96561        23.72075         1.18740
O         35.62473        27.09518        -1.62650
O         29.47783        48.29181        -3.57510
O         25.06264        45.25859        -0.81287
O         36.58568        52.01527        -1.90257
O         58.18873        40.14191        -1.05066
O         52.95924        42.03544         2.03641
O         30.86110        46.08259        -3.40731
O         54.13285        48.43414         2.42894
O         42.44509        36.32299         1.06467
H         43.28651        36.68748         1.41635
O         49.15989        20.90918        -2.13448
H         49.99332        21.39298        -2.31755
O         30.71817        50.63212        -4.02451
H         30.13502        50.05043        -4.56183
O         48.28430        33.54714         1.52142
H         48.82240        34.05171         2.16791
O         36.70558        34.51237        -3.17852
H         36.23763        35.15108        -3.77011
O         38.89349        33.11348        -2.51807
H         38.12858        33.52481        -2.99444
O         35.10755        45.59011         0.27101
H         35.22965        46.48698         0.67453
O         29.78336        41.32741        -2.90380
H         29.65125        42.20163        -3.32980
O         43.24566        41.45358        -3.62597
H         43.16994        42.32333        -4.07637
O         40.56655        45.47776        -0.15307
H         39.74602        45.06304         0.19070
O         32.10991        39.77097         0.65561
H         31.43525        39.32230         1.21096
O         48.00702        36.30173        -1.96909
H         48.09436        35.41268        -2.39739
O         48.15455        33.58263        -2.12667
H         48.53980        32.76535        -2.53520
O         50.56600        50.57358        -1.48843
H         50.20005        51.44278        -1.77776
O         38.02263        34.02658         0.93160
H         37.35953        33.70856         1.57977
O         47.77544        44.87545        -2.60740
H         48.72520        44.93329        -2.87177
O         32.35851        27.47653        -1.42844
H         33.19796        27.63411        -1.91409
O         26.77588        30.05230         2.76028
H         26.92318        29.20932         3.24143
O         32.97773        23.10792         2.41972
H         32.99200        22.17596         2.72652
O         38.73291        22.31793        -2.11116
H         39.42538        21.73138        -2.50179
H         21.96235        27.04005         1.33396
H         21.99489        29.52324         1.32870
H         22.32707        31.48361         2.32741
H         22.57344        33.89290         2.52604
H         23.70846        35.17971         3.85780
H         24.39878        37.41640         4.70402
H         24.27079        40.77442         4.47592
H         23.73255        43.01777         3.55600
H         23.28353        44.71923         2.72730
H         23.24587        47.10484         2.22153
H         25.26998        23.61662         1.19052
H         23.17465        24.88443         1.28334
H         26.07789        50.13232        -0.15550
H         24.36050        49.14529         1.25972
H         26.87649        22.63539         0.86514
H         27.14379        50.82929        -1.59407
H         28.94470        21.38270         0.70028
H         29.02802        51.99840        -2.48516
H         32.69923        19.17107         0.37971
H         30.61343        20.40218         0.47960
H         32.63031        53.97968        -0.68311
H         30.66954        52.86629        -1.65848
H         34.39467        18.17654         0.50527
H         33.98945        54.14909         1.17629
H         36.50255        16.97826         0.42762
H         35.98436        55.01426         2.29798
H         40.32217        14.85544         0.63606
H         38.17275        16.04679         0.65907
H         39.58758        56.61733         4.18632
H         37.55179        55.68647         3.16214
H         42.77317        14.85524         0.42657
H         42.03970        56.71736         4.34726
H         44.88918        16.06598         0.13213
H         44.26345        55.92379         3.66862
H         48.57088        18.22515        -0.59713
H         46.48521        16.98680        -0.37002
H         48.17721        54.50497         2.45168
H         45.98442        55.29847         3.17336
H         50.16300        19.14840         0.04456
H         49.94127        54.13489         1.54945
H         52.19558        20.38238         0.50758
H         52.03828        52.93323         1.56012
H         55.97135        22.52309         0.01031
H         53.87922        21.30498         0.04796
H         55.86667        51.00172         1.27196
H         53.75752        52.15134         1.05067
H         57.60090        23.47437        -0.14979
H         57.58285        49.97020         1.46391
H         59.69461        24.72860        -0.37107
H         60.91325        26.87670        -0.46836
H         60.92454        29.32973        -0.40373
H         60.91125        31.21775        -0.42096
H         60.92109        33.63541        -0.31807
H         60.93927        35.49799        -0.01889
H         60.93452        37.93478         0.08870
H         60.93934        39.78584         0.80007
H         60.90699        42.17732         1.13011
H         60.92252        44.10335         1.21251
H         60.92600        46.52030         1.50909
H         59.70565        48.73338         1.49057
