         280
 CSIRO Nanostructure Databank - Neutral Graphene Oxide Data Set
C        -11.28321         0.57291        -0.39771
C        -10.11601         1.45298        -0.79641
C         -8.80452         0.64810        -0.81512
C         -7.51931         1.40201        -0.92347
C         -6.19892         0.70057        -0.70061
C         -5.01290         1.44587        -1.32878
C         -3.68264         0.67442        -1.20370
C         -2.41613         1.49497        -1.09281
C         -1.21369         0.86021        -0.44107
C          0.10501         1.59601        -0.49258
C          1.38219         0.82220        -0.66978
C          2.57142         1.51628        -1.28449
C          3.86388         0.77229        -1.20835
C          4.96738         1.54531        -0.51153
C          6.25090         0.72698        -0.44472
C          7.55004         1.47551        -0.41176
C          8.64045         0.69840         0.22824
C          9.57834         1.43772         1.06952
C         10.49747         0.63256         1.87194
C         -9.99911         2.72733         0.07882
C         -8.74058         3.55966        -0.17210
C         -7.52596         2.90325        -0.74681
C         -6.20605         3.58596        -0.52756
C         -4.88976         2.79442        -0.54620
C         -3.78021         3.68795        -1.12136
C         -2.45489         2.98088        -1.24756
C         -1.26707         3.73819        -0.74215
C          0.07553         3.06772        -0.69116
C          1.27335         3.79793        -1.22303
C          2.55491         3.03179        -1.31648
C          3.87108         3.77165        -1.20692
C          5.11612         2.99680        -0.94163
C          6.27001         3.67717        -0.71484
C          7.56482         2.96899        -0.43242
C          8.65364         3.73406         0.35558
C          9.55399         2.80096         1.14705
C         -8.69535         4.84235         0.26051
C         -7.44021         5.59651         0.67754
C         -6.14034         4.89824         0.22650
C         -4.89050         5.71156         0.04229
C         -3.79758         5.16488        -0.84293
C         -2.52113         5.97814        -0.97114
C         -1.27136         5.21901        -0.68559
C          0.03935         5.92681        -0.48364
C          1.31486         5.33357        -1.07430
C          2.51176         5.67874        -0.16287
C          3.83868         5.21678        -0.74562
C          5.09641         5.91137        -0.35100
C          6.29237         5.16540        -0.90905
C          7.69269         5.97028         1.13598
C          7.91819         4.68154         1.33887
C         -7.36754         7.07765         0.37323
C         -6.15706         7.82825         0.88117
C         -4.84875         7.17845         0.40461
C         -3.68802         8.02961        -0.00307
C         -2.48824         7.43967        -0.67829
C         -1.17275         8.24679        -0.51873
C          0.05713         7.38810        -0.21705
C          1.40792         8.09920        -0.15783
C          2.51665         7.14364         0.32369
C          3.81658         7.76666         0.75846
C          5.09867         7.13482         0.27561
C          6.37974         7.98169         0.28239
C          7.51914         7.27589         1.03947
C         -6.14602         9.32867         0.64643
C         -5.05954        10.08068         0.40442
C         -3.71945         9.55175        -0.05481
C         -2.46854        10.03457         0.67266
C         -1.24703         9.41945         0.44679
C         -0.00105         9.90932         0.95139
C          1.28648         9.33853         0.70180
C          2.45367         9.90606         1.18480
C          3.79442         9.21043         1.30910
C          5.01553        10.01217         0.95650
C          6.18972         9.41491         0.73387
C        -11.22544        -0.76333        -0.18750
C         -9.98330        -1.51224        -0.09645
C         -8.73385        -0.66662        -0.03333
C         -7.53011        -1.53706        -0.46039
C         -6.19894        -0.77509        -0.48394
C         -4.99045        -1.59939        -0.94947
C         -3.66901        -0.79813        -0.91468
C         -2.46922        -1.42666        -0.24672
C         -1.20742        -0.60184        -0.13582
C          0.10682        -1.32423         0.08235
C          1.39697        -0.62856        -0.30161
C          2.52796        -1.45432        -0.85613
C          3.83109        -0.75687        -1.14628
C          5.09291        -1.54954        -1.03663
C          6.30842        -0.75767        -0.68709
C          7.66872        -1.40382        -0.74255
C          8.71717        -0.65304         0.03368
C          9.85403        -1.39321         0.62235
C         10.59719        -0.70353         1.70290
C         -9.93716        -2.88728        -0.00762
C         -8.71591        -3.64942         0.19807
C         -7.48963        -2.80155         0.44324
C         -6.15409        -3.53941         0.34793
C         -4.90054        -2.88960        -0.14973
C         -3.64096        -3.75465        -0.34807
C         -2.41074        -2.90649        -0.04779
C         -1.06566        -3.60688        -0.23157
C          0.13508        -2.80880         0.24505
C          1.46124        -3.54156         0.19131
C          2.55154        -2.93582        -0.63855
C          3.82941        -3.68511        -0.89020
C          5.11865        -2.92575        -1.05099
C          6.43816        -3.68097        -1.45294
C          7.73169        -2.89571        -0.97537
C          8.98009        -3.67420        -0.47952
C          9.94201        -2.86842         0.41275
C         -8.66896        -5.00867         0.40867
C         -7.43625        -5.75135         0.66391
C         -6.13926        -5.06853         0.27175
C         -4.89352        -5.64302         0.93896
C         -3.61402        -4.94278         0.62966
C         -2.29355        -5.65943         0.85306
C         -1.04155        -5.06583         0.28393
C          0.24598        -5.78595         0.55353
C          1.53595        -5.00567         0.47171
C          2.78712        -5.73989         0.12731
C          3.87505        -5.09144        -0.39528
C          5.07646        -5.82990        -0.83668
C          6.45397        -5.19300        -1.07558
C          7.55546        -5.71531        -0.18849
C          8.68671        -5.03959         0.10171
C         -7.40932        -7.06815         1.04115
C         -6.15080        -7.84533         1.26934
C         -4.84981        -7.11656         1.23716
C         -3.59482        -7.82220         0.74667
C         -2.30010        -7.12594         1.15749
C         -1.04064        -7.97932         1.33579
C          0.27218        -7.17677         1.15433
C          1.53775        -7.93496         0.87253
C          2.78513        -7.19794         0.44915
C          3.92983        -8.00190        -0.02134
C          5.07566        -7.29900        -0.66355
C          6.40522        -7.96569        -0.38419
C          7.51157        -7.04211        -0.94370
C         -6.06754        -9.31360         1.05044
C         -4.88519        -9.97525         0.96241
C         -3.57779        -9.32010         0.88911
C         -2.39768        -9.98901         0.76324
C         -1.06751        -9.28007         0.51500
C          0.16711       -10.13897         0.91043
C          1.48893        -9.41144         0.62949
C          2.55446       -10.09501         0.14079
C          3.75235        -9.42083        -0.50590
C          5.10975       -10.11517        -0.54974
C          6.28163        -9.45546        -0.67422
O          0.27521         2.51395         0.63687
O         -3.76901         7.48054         1.35702
O         -2.28685        -6.14890         2.23091
O         -0.43574        -5.91905        -0.74421
O          2.92408        -1.18432        -2.21617
O         -2.15897         2.14672        -2.39426
O          3.92690         4.87108        -2.16627
O         -2.67234        -2.04349         1.07169
O          3.31004         1.15541        -2.49752
O          0.07504        -1.96127         1.40481
O         -5.39998        -7.48319         2.51632
O          1.80861        -4.02072         1.52686
O         -5.22626        -2.00760        -2.30499
H         -4.80134        -1.34266        -2.89799
O          7.98027         2.19399        -1.61009
O          0.03928         6.44082         0.89156
O          9.48471         4.47559        -0.53103
H          8.90420         4.98712        -1.14277
O          4.49462         1.70632         0.85517
H          4.71688         0.88430         1.35267
O         -7.79824        -2.00478        -1.79108
H         -7.81369        -1.22403        -2.39127
O         -3.40604        -0.30543        -2.26379
O          0.11610       -11.36564         0.18743
H         -0.01181       -11.13439        -0.75722
O          3.86269        -7.67852         1.39007
O         -2.59375         6.94662        -2.05547
O          3.35883        -9.27937        -1.90637
H          3.42572       -10.15716        -2.33588
O         -0.86544        -3.63423        -1.66182
H         -1.59805        -4.15411        -2.06868
O        -10.40856         1.91688        -2.13024
H         -9.63401         1.69219        -2.69979
O          1.58750         9.87908        -1.73914
H          0.62879         9.85829        -2.00804
O         -5.24530        -2.81417         1.24117
O         -1.09393        -8.43209         2.69954
H         -1.17304        -7.63965         3.27538
O          7.21058         5.66662        -1.55804
O          6.62849        -7.89287         1.05516
H          5.80011        -8.14853         1.52088
O          6.79062         8.20820        -1.08170
H          7.10018         7.35983        -1.48828
O          1.76122         3.39074        -2.51937
O         -3.59678         9.96703        -1.43899
H         -2.68305         9.76075        -1.75228
O          6.40130        -3.64080        -2.87568
H          6.88905        -2.83834        -3.17267
O         -6.87719         3.68068        -1.80896
O         10.79134        -2.00156        -0.37231
O         -5.99064        -5.34865        -1.16531
O         -1.46293         0.40437         0.90964
O         -9.97691         2.31948         1.44373
H         -9.74555         3.08535         2.00803
O         -7.61782        -2.43362         1.83439
O         -5.95689         0.13702         0.61800
O          7.04896        -6.19447        -2.07230
O          1.87265         8.47678        -1.51910
H         -1.15458         8.17100        -2.50589
O         -5.10502         4.89773         1.25266
O          3.91749         9.09612         2.76698
H          3.31750         8.36509         3.04509
O         -7.53178         5.47314         2.12872
H         -6.94084         6.16701         2.52586
O          1.18248        -7.44897         2.23115
O         -4.27624        -4.79328         1.92029
O         -4.20345         4.62018        -2.14328
O          2.91892         7.06609         1.71173
O         -8.15038         0.77248        -2.11389
O          6.15285        -0.20427         0.68857
O          2.35114         4.82526         0.98997
H          1.63550         5.19135         1.55810
O         -0.94991        -8.99179        -0.89267
H         -1.70588        -8.42157        -1.16245
O         -1.56546         4.40284         0.51406
O         -3.55142        -4.25751        -1.68873
H         -4.44402        -4.62559        -1.92006
O          8.10208        -1.93108        -2.02451
O         -0.95322         8.85755        -1.82431
O          1.42983         5.93088        -2.36476
H          2.09826         5.40745        -2.87332
O         -9.58052        -0.70014         2.20563
H         -9.15543        -1.55014         2.50410
O          1.83283         0.34703         0.67110
O          9.74144        -4.00765        -1.66213
H         10.18533        -3.17694        -1.94934
O         -4.82829        -8.00161        -1.31434
H         -4.55382        -8.74476        -1.90586
O         -6.14591         7.71551         2.35294
H         -5.19629         7.76418         2.61982
O         -3.56103        -7.54757        -0.75610
H         -5.91371        -6.32543        -1.28603
O          4.76199        -6.75599        -1.96031
O          2.78071        -3.60598        -1.91642
O         -8.54414        -0.15248         1.35492
H         -6.74540        -2.07719         2.12770
O         -4.49578         2.39286         0.76672
H         -4.52970         3.17634         1.36937
O         -5.31098         1.65282        -2.70215
H         -4.57425         2.14298        -3.12499
H         11.31374        -1.29258         2.29340
H         11.11021         1.14545         2.62777
H         10.28863         3.29840         1.79918
H          7.51034         4.21321         2.25412
H          8.30540         7.93819         1.44531
H          7.09062        10.03750         0.61682
H          4.97370        11.09594         1.14273
H          2.37276        10.84191         1.76205
H         -0.03455        10.80550         1.59130
H         -2.51773        10.92673         1.31608
H         -5.17350        11.17570         0.36915
H         -7.09100         9.84176         0.88639
H         -8.31731         7.63671         0.33015
H         -9.62468         5.27518         0.66894
H        -10.90569         3.37149        -0.11453
H        -12.26848         1.06360        -0.41456
H        -12.16237        -1.31920        -0.02401
H        -10.88504        -3.44721        -0.06288
H         -9.60728        -5.58671         0.38878
H         -8.36078        -7.59252         1.22605
H         -7.00745        -9.88650         1.03621
H         -4.89288       -11.07351         0.88541
H         -2.39019       -11.09028         0.79965
H          0.09763       -10.37898         2.00064
H          2.42681       -11.17599        -0.04129
H          5.10421       -11.21237        -0.66436
H          7.21035       -10.03638        -0.79756
H          8.48506        -7.54173        -1.15360
H          9.58167        -5.61757         0.38561
H         10.50288        -3.46895         1.16538
