         294
 CSIRO Nanostructure Databank - Neutral Graphene Oxide Data Set
C          1.13735         2.17127        -0.62635
C          1.08008         3.54736        -0.20206
C          2.29675         1.46730        -0.67569
C          2.23170         4.26076         0.06141
C          1.10970         6.44621         0.53955
C          1.07865         7.80374         0.52621
C          2.28136         5.69078         0.18613
C          2.17131         8.60774        -0.11087
C          1.28390        10.74197         0.96400
C          1.38248        12.16353         1.28041
C          2.28891        10.04976         0.37095
C          2.55019        12.84340         1.15796
C          1.62111        15.08562         1.87552
C          1.68472        16.43992         1.81553
C          2.84008        14.19225         1.80609
C          2.92320        17.15584         1.67535
C          2.95025        18.53187         1.48521
C          3.57131         2.02084        -0.08458
C          3.56608         3.57668        -0.15959
C          4.83023         1.60281        -0.83080
C          4.62293         4.22240         0.73100
C          3.53861         6.39053         0.02220
C          3.49779         7.83732        -0.16903
C          4.70535         5.66492         0.39780
C          4.58358         8.60892        -0.60718
C          3.46046        10.86939        -0.14903
C          3.76821        12.03628         0.80563
C          4.71977        10.02500        -0.30450
C          4.90659        12.85699         0.24069
C          4.03083        14.95925         1.20370
C          4.19930        16.36374         1.83235
C          4.92599        14.32783         0.34964
C          5.47161        17.20849         1.54478
C          4.11999        19.24052         1.15048
C          5.35394        18.58481         0.94981
C          6.00101         2.21606        -0.56010
C          6.15554         3.14876         0.63205
C          7.22560         2.08399        -1.42264
C          7.47685         4.02111         0.60566
C          6.02851         6.30782         0.54568
C          6.17398         7.70957         1.07721
C          7.31966         5.54121         0.46188
C          7.30833         8.47006         0.49888
C          5.93830        10.63897        -0.11213
C          5.98212        12.11376        -0.15775
C          7.20321         9.98683         0.47592
C          7.23099        12.74308        -0.72747
C          6.05641        14.99681        -0.27818
C          6.11910        16.39124        -0.62090
C          7.24071        14.24085        -0.54720
C          7.34073        17.09467        -0.60151
C          6.40589        19.22281         0.25795
C          7.49210        18.51923        -0.36627
C          8.57007         2.09760        -0.72343
C          8.40311         3.57959        -0.55078
C          9.74583         1.46419        -0.99695
C          9.65446         4.40410        -0.69836
C          8.61118         6.33095         0.73056
C          8.49776         7.81140         0.37920
C          9.75787         5.73388        -0.07625
C          9.76541         8.53867         0.25497
C          8.44601        10.58021        -0.20437
C          8.48307        12.12332        -0.04250
C          9.74225         9.91281         0.18396
C          9.80745        12.73094        -0.58550
C          8.42151        14.88137        -0.78137
C          8.63759        16.33565        -0.51100
C          9.65340        14.13593        -1.04947
C          9.67138        16.97156        -1.47223
C          8.73689        19.13356        -0.62067
C          9.90304        18.40211        -1.04817
C         11.02603         2.16840        -0.93596
C         10.95441         3.65559        -0.96550
C         12.24961         1.53951        -1.02188
C         12.23864         4.41895        -0.86957
C         10.97641         6.42843        -0.01377
C         10.99961         7.78605         0.32273
C         12.29005         5.64473         0.03535
C         12.26076         8.49480         0.64222
C         10.97206        10.77999         0.28962
C         10.99679        11.77469        -0.89841
C         12.25046         9.99522         0.55399
C         12.34971        12.47264        -1.02003
C         10.62585        14.81091        -1.92498
C         10.92723        16.12310        -1.73793
C         12.43892        13.62130        -1.83607
C         12.27865        16.74270        -1.98375
C         11.17305        18.91643        -1.10282
C         12.39953        18.02369        -1.14396
C         13.53912         2.22776        -1.11402
C         13.51794         3.71118        -1.12374
C         14.74142         1.58097        -1.04715
C         14.80477         4.45641        -0.94072
C         13.56817         6.45562        -0.11576
C         13.59956         7.73741         0.70811
C         14.74697         5.81719        -0.36525
C         14.78353         8.61849         0.32752
C         13.54540        10.81489         0.56309
C         13.51524        12.02459        -0.35954
C         14.77602         9.96791         0.24830
C         14.74165        12.63589        -0.71472
C         13.56807        14.45762        -1.95004
C         13.59917        15.95647        -2.19962
C         14.71288        13.72017        -1.59855
C         15.03221        16.78003        -2.14877
C         13.67586        18.78309        -1.35872
C         14.85293        18.22540        -1.68323
C         16.11921         2.22179        -1.20181
C         16.11210         3.75216        -1.06385
C         17.17848         1.57408        -0.33875
C         17.41603         4.51929        -0.72579
C         15.98274         6.38866         0.25129
C         16.07132         7.88027         0.02478
C         17.25622         5.62224         0.34637
C         17.30581         8.57040         0.54272
C         16.08332        10.67830        -0.11763
C         16.01440        12.21366         0.02247
C         17.22331        10.06940         0.73545
C         17.39436        12.87212        -0.25287
C         16.57128        14.88035        -1.41582
C         16.24838        16.20598        -1.37757
C         17.55675        14.18022        -0.62581
C         17.45945        17.05835        -1.14943
C         16.09760        19.11923        -1.71110
C         17.30439        18.51931        -1.00681
C         18.37130         2.16875        -0.08895
C         18.66164         3.58122        -0.56576
C         19.53164         1.40734         0.38501
C         19.67972         4.26340         0.33801
C         18.52462         6.37817         0.77639
C         18.49254         7.89457         0.71050
C         19.82902         5.77568         0.21311
C         19.73791         8.57587         0.97292
C         18.58962        10.71790         0.39827
C         18.54505        12.26292         0.56249
C         19.72309        10.06830         1.24717
C         19.93506        12.85803         0.21047
C         18.61291        15.05103         0.01485
C         18.73274        16.39907        -0.69000
C         19.91008        14.34799         0.23465
C         19.86070        17.24636        -0.18642
C         18.21020        19.24648        -0.30505
C         19.53136        18.70062         0.12644
C         20.71200         1.98172         0.72040
C         20.78844         3.44594         0.92857
C         22.04226         4.17652         1.23376
C         20.83191         6.35191         1.22607
C         20.95393         7.86195         1.01883
C         22.08020         5.52056         1.33931
C         22.15778         8.58014         0.96607
C         21.05525        10.76719         1.03471
C         21.03964        12.28023         1.17085
C         22.18801        10.00128         0.88434
C         22.33454        13.04402         0.95069
C         21.19061        15.11162         0.05994
C         20.97267        16.55587         0.50912
C         22.37161        14.34755         0.62428
C         21.73107        17.26704         1.38867
C         20.31171        19.28546         1.22613
C         21.36712        18.61568         1.76650
O          6.73607         6.04171        -0.75842
O         10.17745         4.24756        -2.05546
O         15.86717        14.05160        -2.28315
O         20.11962         6.24215         2.51786
O         10.29675        13.80889         0.26771
O         11.37204        13.90835        -2.69178
O         12.84464        16.55692        -3.30037
O          5.47210         8.14663         1.98174
O         16.30914         5.61003         1.44977
O         18.67714         6.12025         2.21774
O         12.35840         5.20441         1.36222
O         20.31630        18.31085        -1.05831
O         12.81585         4.45106        -2.20367
O          6.51982        16.83383         2.07321
O         15.52209         4.35643        -2.26187
O         18.51060        16.53817        -2.10582
O         19.60417         3.86361         1.71965
O         12.08511         9.32599         1.84897
O          7.53494         3.51073        -1.77571
O          6.09048         2.45466         1.78513
O         19.26216         3.43536        -1.87268
H         18.63736         2.90862        -2.42170
O          7.26229        12.53922        -2.15540
H          7.25874        11.56208        -2.31222
O         10.77026        11.04632        -2.12750
H         10.91162        11.67470        -2.87091
O          1.76404         8.76382        -1.53591
H          1.62934         7.86329        -1.90232
O          8.15913         3.77534         1.83937
H          7.56703         3.11252         2.31077
O         16.55582         1.96233        -2.57558
H         15.96240         2.49708        -3.15178
O          3.60883         1.55356         1.27241
H          4.54503         1.67269         1.60203
O         16.85281        10.32003         2.10689
H         17.63879        10.07233         2.66443
O         16.21226         7.88373        -1.46021
H         16.91651         7.22834        -1.69675
O          3.18387        13.80833         3.18039
H          3.53108        14.63206         3.61475
O         18.05600        15.38503         1.33935
H         17.96505        14.52268         1.82144
O         17.71983         5.36941        -1.87955
H         17.00277         5.19968        -2.54718
O         15.81437        20.41783        -1.20110
H         15.66519        20.34673        -0.23620
O          5.55097         8.13403        -1.41398
H          5.40811         7.19357        -1.65311
O         20.16726         6.19195        -1.09867
H         19.60854         5.69219        -1.74126
O          3.92236         3.94748        -1.52276
H          3.34115         3.44434        -2.13130
O         10.83210        11.58690         1.49062
H         11.03432        10.99428         2.25006
O         20.39384        12.47142        -1.11377
H         19.64235        12.56149        -1.73808
O         13.79557         7.32530         2.07295
H         13.27417         6.47316         2.17152
O          9.18460        16.49588         0.82511
H          8.44342        16.40760         1.46878
O          4.35723         4.16977         2.11552
H          4.88159         3.39362         2.48008
O         20.69764        12.55962         2.55519
H         20.35697        13.47959         2.60462
O         18.31777        12.62184         1.94717
H         17.36207        12.39819         2.13544
O         16.33244        10.51587        -1.53557
H         16.21357         9.55718        -1.77338
O          3.06548        11.39509        -1.43457
H          2.60143        10.67101        -1.91298
O          7.16593        10.35348         1.86359
H          6.32099        10.00849         2.23975
O         13.66315        11.28256         1.93526
H         13.53328        10.48910         2.50777
O          8.26684        10.22160        -1.60769
H          9.13955        10.35178        -2.06399
O          8.34082        12.50498         1.32358
H          9.21673        12.37527         1.76168
O         12.50570        17.50164         0.23339
H         11.61936        17.17490         0.50879
O         18.90317        10.39946        -0.96523
H         18.07945        10.53260        -1.50398
O          4.22609        11.44705         2.05558
H          4.07757        12.12400         2.76035
O         15.44937        16.86097        -3.52149
H         15.71010        15.96248        -3.81459
O          4.94335        16.98150        -0.98728
H          5.11304        17.89355        -1.30084
O         15.82063        12.65681         1.38609
H         15.07142        12.15214         1.80466
O          8.93948         6.29098         2.13032
H          8.97709         5.33796         2.39501
O          4.35486        16.14089         3.27809
H          5.32586        16.04947         3.43458
O         21.43351        15.17036        -1.38505
H         21.41859        14.23970        -1.70731
O          9.00472        17.02975        -2.76532
H          9.63422        17.40580        -3.41642
O         19.40671        10.19415         2.66652
H         19.68220        11.11037         2.93740
H          0.19981         1.70662        -0.96676
H          0.10167         4.05136        -0.21597
H          2.29023         0.42449        -1.02886
H          0.23165         5.89233         0.90447
H          0.16869         8.31806         0.86771
H          0.34750        10.24275         1.25525
H          0.47576        12.64708         1.67298
H          0.64326        14.60661         2.02804
H          0.75648        17.03136         1.86015
H          1.99575        19.07951         1.48832
H          4.75930         0.88227        -1.66351
H          4.03786        20.30518         0.88554
H          7.09654         1.42575        -2.31283
H          6.35529        20.31832         0.14474
H          9.74513         0.41907        -1.34550
H          8.86205        20.19266        -0.34708
H         12.27531         0.43818        -1.02126
H         11.33918        19.96859        -0.81776
H         14.74429         0.48115        -0.97659
H         13.66406        19.85131        -1.08372
H         17.03270         0.51698        -0.06583
H         16.38753        19.24646        -2.78984
H         19.44612         0.31009         0.36578
H         18.04125        20.32798        -0.17298
H         21.58400         1.35998         0.97225
H         22.96720         3.58975         1.34296
H         23.03535         6.01986         1.56145
H         23.11630         8.04173         0.96360
H         23.16864        10.48689         0.76869
H         23.27000        12.55104         1.26131
H         23.34740        14.85701         0.57821
H         22.59651        16.80279         1.88442
H         20.01072        20.26323         1.63153
H         21.94958        19.09000         2.56977
