         429
 CSIRO Nanostructure Databank - Neutral Graphene Oxide Data Set
C          1.21772         2.05260        -0.92502
C          1.16227         3.44555        -0.59648
C          2.37637         1.33707        -0.86492
C          2.28269         4.16491        -0.23514
C          1.09656         6.33475        -0.09298
C          1.08919         7.73242         0.02043
C          2.29371         5.61927        -0.10758
C          2.27464         8.45214         0.07588
C          1.26363        10.53686        -0.87064
C          1.29634        11.83552        -1.20934
C          2.18535         9.95494         0.19282
C          2.28412        12.76889        -0.62331
C          1.29622        14.81101        -1.71299
C          1.32729        16.12027        -2.09737
C          2.45602        14.12074        -1.20652
C          2.60110        16.81415        -2.27740
C          2.67841        18.28156        -2.38213
C          3.58072         1.92248        -0.27496
C          3.53445         3.45009         0.04398
C          4.89673         1.34677        -0.52180
C          4.81057         4.18289         0.07295
C          3.53899         6.32861         0.03545
C          3.52521         7.76582         0.09020
C          4.77971         5.63407         0.11217
C          4.74881         8.49670         0.17618
C          3.52931        10.64454         0.13740
C          3.50781        12.10893         0.04650
C          4.73065         9.95379         0.18895
C          4.77145        12.84141         0.02896
C          3.67049        14.78585        -1.06393
C          3.85126        16.09218        -1.71065
C          4.81282        14.20353        -0.38877
C          5.01402        16.91195        -1.36249
C          3.84837        18.94148        -2.20010
C          5.05459        18.28612        -1.71987
C          6.05132         2.05677        -0.24338
C          6.00166         3.47495         0.06474
C          7.33472         1.39996        -0.35897
C          7.29706         4.16487         0.40928
C          6.00242         6.36521         0.21590
C          5.98428         7.80344         0.23202
C          7.24670         5.67410         0.28248
C          7.22005         8.52279         0.35896
C          5.98146        10.68384         0.27636
C          5.98557        12.11743         0.25666
C          7.21425         9.98412         0.37831
C          7.19898        12.83763         0.38980
C          6.01339        14.94255        -0.26059
C          6.10498        16.30158        -0.69293
C          7.13858        14.33528         0.54306
C          7.30743        17.04987        -0.49499
C          6.23016        19.01871        -1.49580
C          7.38154        18.41400        -0.93081
C          8.52949         2.08932        -0.33265
C          8.48806         3.60004        -0.37227
C          9.78354         1.42031        -0.37902
C          9.76462         4.25123         0.08783
C          8.45257         6.38161         0.36925
C          8.42259         7.80664         0.46812
C          9.73482         5.65194         0.36623
C          9.67823         8.54789         0.70622
C          8.42771        10.71633         0.42263
C          8.43198        12.15380         0.43673
C          9.69119        10.00928         0.45369
C          9.66572        12.88238         0.48071
C          8.45916        15.04108         0.35971
C          8.46809        16.39612         0.03579
C          9.69586        14.30948         0.54147
C          9.68646        17.20411         0.24667
C          8.60180        19.14273        -0.83775
C          9.77255        18.57136        -0.31068
C         10.99905         2.08558        -0.18828
C         10.99468         3.52732         0.09932
C         12.23300         1.38748        -0.23583
C         12.18781         4.15550         0.42902
C         10.93449         6.32414         0.56507
C         10.97430         7.78658         0.71549
C         12.24129         5.61807         0.75188
C         12.22556         8.47549         0.31445
C         10.88094        10.66893         0.30570
C         10.91262        12.15869         0.04393
C         12.13185         9.91542         0.05084
C         12.20271        12.78540         0.54901
C         10.93218        15.00607         0.56920
C         10.98216        16.47428         0.54803
C         12.19426        14.30343         0.77115
C         12.26774        17.20533         0.41421
C         11.00837        19.23520        -0.29931
C         12.24049        18.60871         0.07292
C         13.46248         1.99714         0.05977
C         13.46149         3.38933         0.64550
C         14.68808         1.32410        -0.03992
C         14.71098         4.17389         0.29548
C         13.37291         6.28341        -0.07680
C         13.40604         7.78917         0.10894
C         14.68899         5.58508         0.18594
C         14.67131         8.50056         0.00774
C         13.43802        10.67354        -0.12579
C         13.45372        12.11293         0.20917
C         14.67497         9.89130        -0.00659
C         14.68631        12.76984         0.42603
C         13.49469        15.03249         0.45724
C         13.47508        16.55798         0.69829
C         14.69168        14.18008         0.84600
C         14.66309        17.36508         0.74010
C         13.45305        19.31708        -0.07054
C         14.69617        18.71494         0.24519
C         15.93100         1.99824         0.15050
C         15.92481         3.44305         0.25641
C         17.16576         1.31949         0.14971
C         17.16603         4.13103         0.30270
C         15.88402         6.33118         0.26559
C         15.92238         7.75359         0.14449
C         17.12531         5.58083         0.53999
C         17.16746         8.44479         0.22561
C         15.92573        10.65884        -0.00866
C         15.89340        12.07037         0.36780
C         17.22747         9.91503         0.08495
C         17.19538        12.82202         0.36100
C         15.83432        14.64201         1.40110
C         15.89356        16.86849         1.23912
C         17.18486        14.01575         1.32790
C         17.13550        17.35118         0.87172
C         15.95875        19.36778         0.11917
C         17.18737        18.69008         0.34311
C         18.40967         2.00009         0.21438
C         18.39398         3.44765         0.26428
C         19.64456         1.29962         0.25057
C         19.63411         4.17892         0.17937
C         18.45013         6.32237         0.52317
C         18.40717         7.78478         0.34825
C         19.66105         5.55917         0.19390
C         19.62378         8.50366         0.42751
C         18.43400        10.64245         0.55971
C         18.41172        12.00964         0.70653
C         19.65950         9.89320         0.63574
C         19.60485        12.77780         1.11265
C         18.33045        14.95777         0.87093
C         18.33905        16.47595         0.77647
C         19.64530        14.25876         1.00953
C         19.65044        17.15119         0.76251
C         18.47292        19.28065         0.22189
C         19.67685        18.56616         0.52177
C         20.89848         1.95523         0.20143
C         20.89102         3.42204        -0.03995
C         22.12996         1.28853         0.23829
C         22.19792         4.16293         0.00184
C         20.91752         6.31097         0.00338
C         20.90344         7.79172         0.20515
C         22.20238         5.62079         0.18509
C         22.15249         8.44016         0.75837
C         20.91829        10.59416         0.62726
C         20.94145        12.03981         0.92328
C         22.11237         9.91816         0.47791
C         22.13604        12.83502         0.70922
C         20.84398        14.94740         1.02653
C         20.84956        16.41463         0.90686
C         22.12803        14.22610         0.98207
C         22.07959        17.11455         0.93974
C         20.92956        19.22554         0.51347
C         22.13266        18.52892         0.75778
C         23.40619         1.95515         0.20043
C         23.43450         3.44531         0.48058
C         24.58990         1.25851         0.12826
C         24.67967         4.21174         0.07362
C         23.40976         6.32600         0.26556
C         23.42674         7.74892         0.34981
C         24.67310         5.59678         0.12280
C         24.62801         8.49214         0.18900
C         23.33477        10.62144         0.12079
C         23.33883        12.17805         0.20682
C         24.60080         9.89995         0.13569
C         24.64644        12.83294         0.44237
C         23.35665        14.92091         1.04081
C         23.31831        16.38237         1.25949
C         24.62203        14.25510         0.84505
C         24.60973        17.15088         1.32720
C         23.39846        19.21649         0.72376
C         24.62347        18.57732         0.91531
C         25.89536         1.92999        -0.07191
C         25.92294         3.46111        -0.19195
C         27.15219         1.30366         0.29342
C         27.20071         4.16401         0.02786
C         25.89025         6.37662        -0.02576
C         25.88602         7.76605         0.00087
C         27.16345         5.63023        -0.18854
C         27.12526         8.55118        -0.06345
C         25.81255        10.70563        -0.24418
C         25.80698        12.11707         0.34355
C         27.08589         9.93536        -0.01746
C         27.09732        12.79396         0.78791
C         25.82977        14.94120         0.91000
C         25.89125        16.37299         1.26286
C         27.07352        14.26256         0.36159
C         27.16749        17.12273         1.04628
C         25.86871        19.23471         0.71078
C         27.12047        18.58152         0.76659
C         28.37237         2.01887         0.36092
C         28.38456         3.48617         0.23543
C         29.55836         1.33762         0.63377
C         29.64980         4.19688         0.40258
C         28.45091         6.38154        -0.08180
C         28.40295         7.85476         0.05294
C         29.68622         5.65735         0.30913
C         29.58838         8.52698         0.20322
C         28.31958        10.72519        -0.09917
C         28.36923        12.12929         0.32403
C         29.63238         9.96644        -0.04203
C         29.57345        12.78877         0.48807
C         28.38231        14.97685         0.62932
C         28.39850        16.37442         0.68899
C         29.60632        14.25053         0.63145
C         29.61325        17.08992         0.59094
C         28.33961        19.23205         0.53733
C         29.59375        18.53611         0.51757
C         30.83184         2.03346         0.98552
C         30.82675         3.50453         0.66402
C         32.05344         1.34669         0.44101
C         32.09382         4.19105         0.71620
C         30.81509         6.36219         0.61612
C         30.80569         7.86245         0.80895
C         32.05486         5.65492         1.10653
C         32.10208         8.50042         0.32727
C         30.86398        10.70926         0.24352
C         30.83709        12.06560         0.44105
C         32.08374         9.93485        -0.16998
C         32.10741        12.75899         0.80113
C         30.82521        14.95144         0.64775
C         30.84011        16.37019         0.54708
C         32.13228        14.27588         0.99577
C         32.07799        17.07902         0.40068
C         30.81003        19.20719         0.36569
C         32.05307        18.50573         0.29158
C         33.23646         2.04503         0.25016
C         33.28029         3.49166         0.49213
C         34.44103         1.37292        -0.11421
C         34.54895         4.17134         0.31705
C         33.35149         6.41169         0.78460
C         33.27385         7.82600         0.31739
C         34.59864         5.64263         0.49530
C         34.48320         8.46474        -0.36919
C         33.37874        10.64022         0.08893
C         33.39387        12.04666         0.50523
C         34.56452         9.95285        -0.06229
C         34.62289        12.81321         0.26191
C         33.35726        14.95216         0.40014
C         33.32206        16.36505         0.27758
C         34.58280        14.24248         0.20608
C         34.52755        17.08604         0.02966
C         33.26320        19.20333         0.08944
C         34.49906        18.52171        -0.04619
C         35.65738         2.05897        -0.27935
C         35.67587         3.50246        -0.11765
C         36.86427         1.37840        -0.56283
C         36.88569         4.26564        -0.62247
C         35.80715         6.38368         0.04764
C         35.77602         7.72107        -0.13187
C         37.09730         5.59828         0.10598
C         37.06172         8.45826        -0.20616
C         35.79305        10.67099        -0.07352
C         35.81408        12.09676        -0.01795
C         37.06289         9.95244        -0.21200
C         37.04102        12.80824        -0.25531
C         35.78599        14.94983        -0.10001
C         35.76436        16.38782        -0.15180
C         37.02308        14.23298        -0.30042
C         36.95184        17.11371        -0.37460
C         35.70423        19.22961        -0.23916
C         36.94542        18.55085        -0.36492
C         38.11096         2.05413        -0.69272
C         38.16581         3.46717        -0.65848
C         39.33150         1.32194        -0.86808
C         39.39647         4.14966        -0.82977
C         38.27135         6.33728        -0.51158
C         38.23713         7.69646        -0.67551
C         39.45340         5.58769        -0.85626
C         39.38446         8.41434        -1.24515
C         38.24170        10.69796        -0.65755
C         38.25213        12.09571        -0.57491
C         39.39071         9.97368        -1.20908
C         39.47870        12.81424        -0.83293
C         38.22857        14.92761        -0.57313
C         38.19515        16.40733        -0.84343
C         39.46494        14.24453        -0.76923
C         39.46490        17.08286        -0.37619
C         38.15428        19.27289        -0.47006
C         39.43828        18.60722        -0.27703
C         40.53002         1.97374        -1.03207
C         40.59499         3.39985        -1.03643
C         41.80838         4.09823        -1.27199
C         40.66407         6.26143        -1.16349
C         40.67441         7.71174        -1.31129
C         41.83890         5.47802        -1.35078
C         41.81432         8.47410        -1.54099
C         40.68515        10.65990        -1.27529
C         40.68839        12.10791        -1.11232
C         41.81754         9.89294        -1.52736
C         41.87165        12.85845        -1.29052
C         40.69921        14.97176        -0.92107
C         40.73975        16.41204        -0.70175
C         41.87357        14.24514        -1.18875
C         41.89509        17.16733        -0.70910
C         40.70979        19.30332        -0.48195
C         41.86914        18.59778        -0.61695
O         12.18332        13.37123         1.89534
O         10.16517        17.08573         1.62815
O         20.97180         7.26666        -1.15068
O         39.04742         9.21182        -2.42528
O         37.37208         9.15617         1.06901
O         26.75681        16.72197         2.41310
O         27.92601         5.98937        -1.40579
O          3.41268         2.43839         1.08699
O          3.53854        16.10452        -3.14383
O         12.64355        10.27161        -1.31401
O         32.80623        12.11980         1.92744
O         18.16562        15.58597        -0.42678
O         21.62090         3.76375        -1.27918
O         20.33187        12.26467         2.25956
O         23.17457        11.50110        -1.08060
O         29.07046        10.40248        -1.33623
O         17.81082         5.94074         1.79504
O         16.76503        10.40994        -1.23624
O         39.41333        17.69733         0.92373
O         15.83533        15.81372         2.15573
O         23.87868        16.85521         2.55767
O          2.40978        12.74093         0.83184
O         34.30650         6.14740         1.87783
O         25.92222         2.63127        -1.39315
O         10.36472         8.24050         1.98982
O         25.76139        10.90574        -1.69730
H         24.84876        11.22619        -1.90470
O         17.51710        13.52780         2.64525
H         17.21979        14.19192         3.30263
O         27.12239        12.72771         2.23819
H         26.48904        13.39355         2.58505
O          6.78002        14.56325         1.96763
H          6.92011        15.51605         2.15627
O         13.01197         6.05582        -1.46733
H         13.65008         6.54012        -2.03257
O         38.21817        16.55744        -2.31351
H         37.44908        16.06749        -2.67443
O         26.93382        14.25659        -1.09160
H         27.02192        15.17639        -1.41689
O         37.40418         5.29616         1.48376
H         37.34131         6.12632         2.00127
O         13.53308        14.98766        -1.01390
H         14.41194        15.30716        -1.31129
O          7.56458         3.86636         1.81125
H          6.76187         4.08665         2.32893
O         31.97280         9.86980        -1.65061
H         31.01842         9.84440        -1.89500
O         17.33896        13.29721        -1.00511
H         17.26889        12.50121        -1.58161
O         36.57918         4.62372        -2.00458
H         36.48390         3.79532        -2.51970
O         23.36292         3.55409         1.94444
H         24.09575         3.02781         2.32777
O         10.92650        12.33144        -1.41369
H         11.58037        11.67549        -1.77036
O         34.25388         8.33297        -1.80134
H         33.44006         8.85442        -2.02321
O          8.29066         3.99054        -1.76420
H          9.04899         3.64969        -2.28332
O         30.93800         1.95382         2.47088
H         31.62972         2.59539         2.74310
O         31.93289         5.66360         2.57513
H         32.86251         5.64050         2.91539
O         13.55279         3.19749         2.10285
H         13.44388         4.09535         2.50364
O          1.58340        10.23706         1.48889
H          1.63830        11.21674         1.61387
O         22.03623         8.27681         2.21464
H         22.78415         8.74675         2.63937
O         32.27770        14.53044         2.42925
H         32.71361        13.72700         2.80723
O         30.70307         8.10501         2.24593
H         31.16065         7.35064         2.69837
O         12.64149         5.80107         2.15595
H         11.83046         5.94258         2.69028
H          0.31004         1.58529        -1.33296
H          0.20730         3.96132        -0.76741
H          2.43223         0.32083        -1.28175
H          0.13532         5.80744        -0.15080
H          0.12697         8.26030         0.06799
H          0.52401         9.87256        -1.34316
H          0.62370        12.21904        -1.99156
H          0.32389        14.30314        -1.63533
H          0.39084        16.67201        -2.26511
H          1.75919        18.83603        -2.62380
H          4.96445         0.33047        -0.93836
H          3.88434        20.03363        -2.32928
H          7.34440         0.30217        -0.44305
H          6.27042        20.07929        -1.78562
H          9.78952         0.32566        -0.50009
H          8.63350        20.17169        -1.22618
H         12.22104         0.32611        -0.53012
H         11.05063        20.27053        -0.67053
H         14.69810         0.25988        -0.32292
H         13.42806        20.35426        -0.43564
H         17.16737         0.22054         0.08522
H         15.98038        20.41753        -0.20840
H         19.62400         0.20087         0.31652
H         18.55358        20.33734        -0.07405
H         22.13223         0.18725         0.26341
H         20.96476        20.30779         0.31979
H         24.57092         0.15816         0.07633
H         23.39183        20.28781         0.47143
H         27.14312         0.24931         0.60919
H         25.85129        20.30691         0.46128
H         29.53704         0.23999         0.71509
H         28.34354        20.32027         0.37228
H         32.03893         0.25354         0.31640
H         30.81907        20.30444         0.28641
H         34.41643         0.28127        -0.24990
H         33.24782        20.30111         0.01972
H         36.84830         0.28071        -0.63869
H         35.68862        20.32934        -0.25377
H         39.29203         0.22303        -0.87992
H         38.12767        20.36670        -0.58711
H         41.45604         1.39936        -1.18078
H         42.73344         3.52287        -1.42302
H         42.79332         5.97652        -1.56965
H         42.78568         7.97453        -1.66497
H         42.79193        10.38714        -1.64727
H         42.81748        12.34674        -1.51298
H         42.82622        14.77630        -1.31935
H         42.87009        16.69112        -0.88298
H         40.70837        20.40084        -0.55303
H         42.82016        19.13633        -0.73639
