         210
 CSIRO Nanostructure Databank - Neutral Graphene Oxide Data Set
C         30.62577        31.88628        -1.32035
C         30.63245        33.09546        -0.99982
C         30.55118        36.09784         0.06425
C         30.40573        37.26331         0.45832
C         30.47836        40.25738         1.21370
C         30.39465        41.53995         1.17134
C         32.88343        28.87727        -1.17966
C         31.99717        29.69380        -1.51914
C         33.00915        31.88472        -1.33964
C         31.80911        31.10668        -1.46898
C         32.97591        33.26939        -0.87893
C         31.71467        33.95732        -0.67861
C         32.89364        35.97493         0.12644
C         31.68346        35.26904        -0.20430
C         32.86394        37.31963         0.62126
C         31.57565        37.94448         1.16832
C         32.82588        40.17729         1.10769
C         31.57639        39.43697         1.07962
C         32.84406        41.68501         1.38435
C         31.44380        42.40984         1.10481
C         32.71396        44.31701         0.42306
C         31.64487        43.75656         0.75405
C         35.45944        27.56022         0.36634
C         35.33587        28.77100        -0.38742
C         34.29986        29.06974        -1.24214
C         35.45450        31.80852        -0.83334
C         34.32118        31.27812        -1.44043
C         35.49683        33.32283        -0.87812
C         34.16659        33.96822        -0.56768
C         35.36078        36.01617         0.21053
C         34.14252        35.30368        -0.08373
C         35.31276        37.38797         0.54320
C         34.05160        38.06428         0.71943
C         35.32043        40.26669         1.22250
C         34.02897        39.49457         0.99037
C         35.27701        41.68665         0.69397
C         34.05070        42.36384         0.72353
C         35.18916        44.38735        -0.09425
C         34.01443        43.73427         0.31113
C         35.31093        45.74694        -0.49257
C         37.75162        27.55654         1.00149
C         36.43162        26.87056         0.70769
C         37.73665        28.91091         0.24788
C         36.58866        29.56096        -0.27381
C         37.81514        31.73705        -0.24027
C         36.62395        31.01800        -0.51843
C         37.85947        33.17007        -0.08410
C         36.66700        33.92921        -0.17263
C         37.83002        35.95791         0.52359
C         36.62704        35.29985         0.16554
C         37.78487        37.37441         0.88533
C         36.53779        38.13460         0.73354
C         37.80563        40.26280         0.67551
C         36.57212        39.52051         0.83614
C         37.76588        41.67090         0.39899
C         36.49453        42.35130         0.34522
C         37.69445        44.44210        -0.28669
C         36.46747        43.72707        -0.03819
C         37.68917        45.83709        -0.62011
C         36.37277        46.36118        -0.71820
C         40.15236        24.58719         0.77672
C         39.14952        25.33310         0.79390
C         40.21822        27.37032         0.46584
C         38.97497        26.73749         0.69835
C         40.20281        28.81002         0.39426
C         39.01795        29.53505         0.20603
C         40.34785        31.72840         0.09585
C         39.07402        30.97751        -0.13598
C         40.32587        33.18621         0.30362
C         39.08555        33.86730         0.23454
C         40.31558        35.99537         0.60508
C         39.06736        35.27424         0.49328
C         40.33719        37.41193         0.61472
C         39.10733        38.15541         0.89539
C         40.26370        40.27935         0.33550
C         39.05060        39.59320         0.61980
C         40.24015        41.69344         0.13648
C         38.98150        42.37698         0.13137
C         40.18590        44.50754        -0.32327
C         38.96029        43.78288        -0.16360
C         40.16750        45.92320        -0.57295
C         38.89185        46.56058        -0.74394
C         40.06363        48.65943        -1.00591
C         39.03348        47.94595        -0.97672
C         42.74862        24.53579         0.54088
C         41.41779        25.08336         0.08480
C         42.70238        27.33901         0.38569
C         41.46846        26.64635         0.34955
C         42.75905        28.77431         0.47239
C         41.48700        29.49672         0.63416
C         42.83200        31.66291         0.52602
C         41.52832        30.98496         0.62257
C         42.79066        33.11910         0.76228
C         41.53204        33.86394         0.56809
C         42.79352        36.00602         0.49641
C         41.55183        35.28388         0.59458
C         42.77240        37.42630         0.33251
C         41.53852        38.13657         0.40925
C         42.72798        40.28399         0.11046
C         41.50924        39.56840         0.28726
C         42.72144        41.71101        -0.02083
C         41.46877        42.40964        -0.04388
C         42.67678        44.55617        -0.31730
C         41.44396        43.82554        -0.22470
C         42.64039        45.98406        -0.46858
C         41.38978        46.68331        -0.62266
C         42.64043        48.73712        -0.78398
C         41.36270        48.12856        -0.81894
C         43.76429        25.24226         0.44657
C         45.18023        27.35141         0.25555
C         43.99446        26.65358         0.38904
C         45.20201        28.80305         0.12835
C         43.96299        29.49377         0.37093
C         45.34682        31.63836         0.56552
C         43.99511        30.94952         0.44244
C         45.31300        33.13155         0.28660
C         44.11158        33.87964         0.67146
C         45.24040        36.00567         0.14595
C         44.03016        35.31989         0.41951
C         45.22833        37.44423         0.08075
C         43.99501        38.14575         0.15968
C         45.19766        40.29210         0.04236
C         43.96768        39.57354         0.07992
C         45.19889        41.72176        -0.03898
C         43.95857        42.42461        -0.12536
C         45.15647        44.58847        -0.35035
C         43.93053        43.86451        -0.25831
C         45.11476        46.00331        -0.39394
C         43.88949        46.69310        -0.47332
C         43.69685        48.08521        -0.61144
C         47.57388        27.37656        -0.30271
C         46.50437        26.84993         0.04370
C         47.47882        28.71194        -1.03917
C         46.34938        29.50790        -0.32748
C         47.53226        31.64752        -0.71419
C         46.42085        30.92644        -0.23135
C         47.65099        33.17623        -0.75434
C         46.44240        33.84237        -0.09319
C         47.71730        35.99453        -0.36184
C         46.43480        35.26932        -0.04024
C         47.71281        37.43295         0.10823
C         46.46069        38.16270         0.08326
C         47.64325        40.31740         0.46158
C         46.42130        39.56984         0.14863
C         47.66590        41.76345         0.17426
C         46.47125        42.42185        -0.05998
C         47.79109        44.65016        -0.30980
C         46.46016        43.87063        -0.38707
C         47.54487        46.09110        -0.13472
C         46.42531        46.57401        -0.37713
C         50.10183        29.14728        -1.23417
C         48.73025        29.51729        -1.19777
C         50.46666        31.89816        -0.75623
C         48.57505        30.90001        -1.33047
C         50.22165        33.13256        -0.08600
C         48.96536        33.83279        -0.22530
C         50.09300        35.87617         0.58962
C         48.93545        35.19288         0.07582
C         50.11877        37.31488         0.66317
C         48.89750        38.06438         0.42967
C         50.22630        40.21615         0.57254
C         48.92258        39.52755         0.67365
C         50.24278        41.62971         0.01226
C         48.97885        42.46144         0.33930
C         50.37548        44.42739        -0.21992
C         49.02491        43.96916         0.17101
C         51.20126        29.65781        -0.91848
C         52.44168        31.58082         0.43850
C         51.50633        30.97318        -0.44580
C         52.32616        32.75839         0.86743
C         51.28041        33.70554         0.69433
C         52.27152        35.91894         1.47707
C         51.23218        35.09026         0.99367
C         52.33089        37.17185         1.45608
C         51.28886        38.03778         1.04365
C         52.56602        40.26554         0.86476
C         51.37073        39.46730         0.85258
C         52.59216        41.51213         0.65296
C         51.60076        42.40896         0.27921
C         51.40972        43.78245         0.14324
O         48.99056        43.36252         1.48882
O         48.13876        39.98933         1.83331
O         39.99976        31.29335        -1.26704
O         47.30214        44.16622        -1.57182
O         38.46508        37.71932         2.14060
O         49.65862        31.62240        -1.86707
O         47.49854        33.42463        -2.13417
O         41.36254        30.29812         1.90391
O         43.52850        33.48371         1.97836
O         34.54801        30.10349        -2.17809
O         35.74187        33.63462        -2.30690
H         36.57536        33.18773        -2.56948
O         37.79892        27.89075         2.39393
H         37.91487        27.06511         2.90928
O         47.74586        36.05130        -1.82119
H         47.68082        35.09762        -2.15487
O         41.27169        24.88739        -1.29440
H         41.28652        23.92881        -1.49213
O         33.02976        41.83934         2.80857
H         33.89294        41.41163         3.04541
O         46.99440        28.43548        -2.35720
H         47.72644        28.05852        -2.88862
O         35.42332        40.42337         2.69346
H         35.64180        39.54532         3.07514
O         50.14708        41.46065        -1.42397
H         50.90696        40.92373        -1.73419
O         31.51004        37.59216         2.55418
H         30.76073        38.07499         2.96251
O         45.71244        31.53530         1.97832
H         45.01578        32.01230         2.48701
