         647
 CSIRO Nanostructure Databank - Neutral Graphene Oxide Data Set
C          6.11157        31.90666         0.78041
C          6.10046        33.26762         0.67548
C          8.41654        27.61053         0.32889
C          8.46760        28.98204         0.49770
C          7.30726        29.78415         0.62140
C          8.59337        31.91050         0.79377
C          7.34700        31.17608         0.75551
C          8.58069        33.30415         0.68720
C          7.32404        34.00471         0.54010
C          8.40984        36.15086        -0.05105
C          7.26509        35.36162         0.19955
C          8.33438        37.49491        -0.38745
C         10.77543        23.23425         0.10347
C         10.77620        24.69084        -0.04629
C          9.60568        25.44078         0.21335
C         10.85048        27.52320        -0.14468
C          9.62021        26.83879         0.16463
C         10.92696        28.93898        -0.03285
C          9.81995        29.58843         0.78506
C         11.10327        31.83454         0.31552
C          9.85846        31.12253         0.79288
C         11.08749        33.33885         0.20176
C          9.83253        34.10213         0.57033
C         10.86370        36.11776        -0.61398
C          9.77471        35.61588         0.31054
C         10.69365        37.48699        -1.23734
C          9.51566        38.24545        -0.68520
C         10.70093        40.42950        -0.92344
C          9.55038        39.61632        -0.61335
C         10.54557        41.79060        -0.62513
C         13.41693        18.97801         0.23874
C         12.96001        20.18997         0.65293
C         11.77262        20.96991         0.13649
C         13.20625        23.26898         0.01264
C         11.91520        22.49509         0.14983
C         13.07643        24.44316        -0.96281
C         11.93542        25.34027        -0.50372
C         13.14175        27.47617        -1.01746
C         11.98166        26.76254        -0.57631
C         13.16642        28.87203        -1.00917
C         12.07370        29.62858        -0.47107
C         13.23320        31.78849        -0.91925
C         12.16944        31.08376        -0.39170
C         13.26251        33.24363        -0.99250
C         12.13880        34.00138        -0.59143
C         13.10347        36.08976        -1.63031
C         12.00132        35.39307        -0.91177
C         13.13260        37.57571        -1.54007
C         11.98409        38.28205        -1.29272
C         13.17876        40.40937        -1.44638
C         11.95367        39.75393        -1.30110
C         13.34427        41.84592        -1.51517
C         11.49566        42.81358        -0.93229
C         13.06991        44.65672        -0.34838
C         11.82350        43.93842        -0.20092
C         13.12745        45.95537         0.10703
C         15.95291        14.88653         1.27090
C         15.93474        16.25349         1.14979
C         14.75496        16.97768         0.73077
C         15.84842        19.17945         1.21486
C         14.65845        18.34581         0.69812
C         15.84934        20.59450         0.66119
C         14.78081        21.38871         0.89159
C         15.75681        23.29134        -0.39850
C         14.57716        22.71919         0.29570
C         15.65791        24.57013        -0.94975
C         14.37660        25.21793        -1.21556
C         15.63465        27.49083        -1.45514
C         14.36737        26.74026        -1.40621
C         15.65017        28.87329        -1.59472
C         14.34721        29.57761        -1.56662
C         15.67655        31.76498        -1.59043
C         14.37058        31.07708        -1.54495
C         15.66890        33.17938        -1.58695
C         14.43037        33.88747        -1.47378
C         15.68773        36.03637        -1.86516
C         14.40223        35.31587        -1.82590
C         15.67405        37.50286        -1.98969
C         14.36163        38.28826        -2.07239
C         15.58130        40.32348        -1.08368
C         14.44060        39.68311        -1.48091
C         15.53720        41.71681        -0.44810
C         14.41246        42.54100        -1.03724
C         15.63226        44.70879        -0.54408
C         14.31890        44.07039        -1.04960
C         15.56876        46.03852         0.10358
C         14.35558        46.69353         0.27811
C         15.46637        48.79292         0.96870
C         14.33331        48.09410         0.65403
C         15.43707        50.28221         1.24245
C         18.44331        10.71664         2.38007
C         18.41861        12.07743         2.03886
C         17.19045        12.79375         1.83898
C         18.42578        14.86322         1.43084
C         17.17515        14.15742         1.56702
C         18.43244        16.26130         1.22543
C         17.17873        17.03249         1.55644
C         18.26388        18.98282         0.40811
C         17.15557        18.43552         0.99256
C         18.22010        20.31752        -0.25107
C         16.97152        21.13609        -0.13844
C         18.16129        23.19205        -0.98691
C         16.98596        22.59186        -0.42465
C         18.12402        24.51095        -1.42608
C         16.91013        25.28706        -1.17864
C         18.13278        27.45645        -1.85470
C         16.91029        26.77697        -1.37866
C         18.11795        28.87902        -1.89755
C         16.87736        29.59677        -1.73251
C         18.12731        31.75378        -1.76508
C         16.88837        31.03847        -1.72262
C         18.12911        33.18340        -1.67891
C         16.90131        33.89713        -1.66212
C         18.13822        36.04472        -1.44672
C         16.88413        35.34339        -1.67335
C         18.14030        37.41312        -1.24873
C         16.94800        38.21272        -1.56822
C         18.06841        40.24382        -0.43744
C         16.83447        39.55583        -0.92019
C         18.04175        41.71213        -0.25245
C         16.88874        42.42072        -0.41302
C         18.06869        44.55625         0.31316
C         16.89925        43.90400        -0.31629
C         18.07311        45.91117         0.60957
C         16.76729        46.60564         0.72338
C         17.98650        48.78072         1.38521
C         16.71402        48.05036         1.20551
C         18.01077        50.14795         1.47309
C         16.80453        50.94333         1.31072
C         18.16909        53.00909         1.33696
C         16.89982        52.30544         1.25650
C         18.22741        54.38868         1.08941
C         20.94993         6.58481         3.36298
C         20.91722         7.98295         3.20609
C         19.70000         8.64989         2.89956
C         20.91271        10.73662         2.46733
C         19.66956        10.02777         2.60106
C         20.90202        12.08800         2.02762
C         19.66510        12.76261         1.83453
C         20.87384        14.79385         1.14245
C         19.65930        14.13733         1.45555
C         20.85484        16.18946         0.77931
C         19.61137        16.92510         0.86306
C         20.71431        18.94061        -0.01382
C         19.55507        18.29414         0.41619
C         20.65897        20.27141        -0.58189
C         19.48399        20.98663        -0.61512
C         20.52139        22.97748        -1.82107
C         19.50521        22.50305        -0.76499
C         20.53606        24.51029        -1.85300
C         19.22648        25.18617        -2.23844
C         20.51646        27.42004        -2.29796
C         19.30645        26.71621        -2.08060
C         20.53140        28.83627        -2.30502
C         19.34118        29.57789        -2.10914
C         20.57085        31.73134        -2.00309
C         19.37145        31.03341        -1.97658
C         20.63177        33.09705        -1.36389
C         19.37126        33.91118        -1.54869
C         20.60207        36.01166        -1.02780
C         19.37652        35.28827        -1.35052
C         20.62490        37.36909        -0.82826
C         19.40215        38.15330        -1.05210
C         20.64460        40.29577        -0.26537
C         19.40008        39.61900        -0.73307
C         20.62331        41.64256         0.05748
C         19.31302        42.32326         0.21853
C         20.61013        44.52652         0.49179
C         19.30399        43.76917         0.54298
C         20.45135        45.78639         1.32428
C         19.23435        46.55563         1.12305
C         20.54542        48.68061         1.71950
C         19.25215        48.00916         1.32878
C         20.50271        50.09279         2.22755
C         19.25028        50.85586         1.91423
C         20.62420        52.95685         1.68092
C         19.35163        52.30557         1.67458
C         20.67984        54.34885         1.35621
C         19.46398        55.07909         1.10369
C         20.74274        57.17517         0.88512
C         19.51410        56.47133         0.88734
C         20.78194        58.57359         0.68850
C         23.49693         3.81027         4.06396
C         22.28658         4.42833         3.72480
C         23.39267         6.68405         4.12679
C         22.12672         5.87042         3.85114
C         23.38456         8.13158         3.71162
C         22.13403         8.75896         3.26125
C         23.39814        10.75382         2.47954
C         22.15063        10.08130         2.77284
C         23.37783        12.07848         1.92920
C         22.13842        12.76593         1.75946
C         23.34521        14.73488         0.89530
C         22.12062        14.09717         1.25615
C         23.27928        16.05132         0.13894
C         22.03681        16.84115         0.44637
C         23.33158        19.05047         0.15828
C         22.02777        18.30036         0.27968
C         23.20223        20.40918        -0.46697
C         21.92627        20.89323        -1.05453
C         23.12417        23.14520        -1.40638
C         21.89108        22.30206        -1.57274
C         23.12207        24.59097        -1.69104
C         21.79609        25.28611        -1.91683
C         23.05608        27.37601        -2.19031
C         21.78796        26.63682        -2.61200
C         23.09779        28.82622        -2.51436
C         21.80500        29.57331        -2.56614
C         23.15919        31.76331        -2.10113
C         21.84010        31.07298        -2.37808
C         23.21115        33.14309        -1.56086
C         21.91216        33.87735        -1.61265
C         23.13908        35.87635        -0.59904
C         21.89383        35.29622        -1.18303
C         23.14134        37.34191        -0.30420
C         21.84256        38.09455        -0.38274
C         23.08878        40.22855        -0.05475
C         21.88439        39.58117        -0.31940
C         23.09491        41.60774         0.35016
C         21.84522        42.33377         0.40817
C         23.05982        44.35677         1.16631
C         21.84433        43.69156         0.77986
C         23.04034        45.72667         1.48217
C         21.79028        46.48233         1.71865
C         23.02018        48.67954         1.69948
C         21.78385        47.91472         1.89670
C         23.07820        50.10232         2.04666
C         21.82824        50.82974         2.51819
C         23.06827        52.93917         1.99318
C         21.83575        52.26470         2.00094
C         23.11236        54.30707         1.64080
C         21.92949        55.02125         1.32153
C         23.19432        57.14235         0.99191
C         21.97288        56.44832         1.06019
C         23.22929        58.54278         0.82211
C         22.00307        59.27384         0.67582
C         23.27723        61.35027         0.48569
C         22.05816        60.68826         0.49861
C         24.65146         4.50872         4.36097
C         25.75055         6.42973         3.18951
C         24.75945         6.01180         4.30168
C         25.88505         7.92738         3.03897
C         24.69229         8.77204         3.27298
C         25.84607        10.66431         2.16033
C         24.63325        10.07879         2.59518
C         25.85098        12.00473         1.66241
C         24.59260        12.71587         1.55768
C         25.82532        14.70455         0.70126
C         24.54781        14.04396         1.04690
C         25.83469        16.09911         0.20481
C         24.55326        16.86628         0.13567
C         25.96343        18.80277        -0.23123
C         24.61552        18.22751         0.03904
C         26.15628        20.23929        -0.29978
C         24.26287        21.26081        -0.46649
C         25.62987        23.00856        -1.63395
C         24.43217        22.44278        -1.30212
C         25.73497        24.43360        -2.19529
C         24.33996        25.18587        -2.37377
C         25.64326        27.41691        -2.12781
C         24.36305        26.66757        -2.00755
C         25.65246        28.76663        -2.24983
C         24.37076        29.50010        -2.10658
C         25.70687        31.65262        -1.82126
C         24.39346        30.95316        -1.85353
C         25.71677        33.01663        -1.16283
C         24.39864        33.75841        -1.30476
C         25.68250        35.93919        -0.89386
C         24.43155        35.14741        -0.76650
C         25.62479        37.37763        -0.63301
C         24.41190        38.05623        -0.39129
C         25.60102        40.09732         0.29587
C         24.39853        39.56223        -0.42409
C         25.52396        41.42727         0.91410
C         24.29728        42.24513         0.74547
C         25.56090        44.25228         1.45816
C         24.32083        43.61015         1.16334
C         25.58656        45.66964         1.86068
C         24.27298        46.42876         1.86034
C         25.57797        48.62139         1.89052
C         24.31985        47.90258         1.64342
C         25.54073        50.00803         2.04658
C         24.29591        50.74003         2.14751
C         25.63477        52.89663         2.17923
C         24.31353        52.21756         2.52327
C         25.65232        54.37256         2.08342
C         24.37807        55.07379         1.75201
C         25.72791        57.14577         1.22351
C         24.47406        56.34788         0.94070
C         25.69858        58.54052         1.05001
C         24.48741        59.25008         0.82256
C         24.48164        60.64995         0.65262
C         27.01179         8.49700         2.53606
C         28.26571        10.49683         1.77660
C         27.07555         9.90740         2.17902
C         28.31759        11.86871         1.34627
C         27.06775        12.57760         1.24774
C         28.33818        14.55556         0.20878
C         27.04522        13.86216         0.52710
C         28.33519        15.98475        -0.17545
C         27.00617        16.55855        -0.64308
C         28.28101        18.67574        -1.14692
C         27.04087        18.05206        -0.62298
C         28.22409        20.11691        -1.56629
C         27.00160        20.84413        -1.16904
C         28.08728        22.98771        -0.82714
C         26.97092        22.27927        -1.64076
C         28.03051        24.51343        -0.90880
C         26.75549        25.22303        -1.34021
C         28.14978        27.39055        -1.67156
C         26.84470        26.69328        -1.64500
C         28.18039        28.83199        -1.97533
C         26.92772        29.52826        -2.52998
C         28.11275        31.77906        -2.22337
C         26.85715        30.99838        -2.11562
C         28.08962        33.23194        -1.92080
C         26.92881        33.86696        -1.51044
C         28.04592        36.13849        -1.60673
C         26.84924        35.30721        -1.31646
C         28.07468        37.56338        -1.05251
C         26.83261        38.12857        -0.52587
C         28.08288        40.07700         0.34944
C         26.83000        39.44187         0.07175
C         28.13744        41.31610         1.22233
C         26.81993        42.10412         1.31371
C         28.03643        44.30322         1.40681
C         26.82809        43.58889         1.36223
C         28.07019        45.73579         1.51862
C         26.82604        46.46658         1.70939
C         28.05964        48.61257         1.47024
C         26.79988        47.85162         1.80308
C         28.10040        50.02279         2.02786
C         26.81160        50.74114         2.27521
C         28.15347        52.91514         2.32791
C         26.80774        52.21720         2.18993
C         28.11272        54.35074         1.88465
C         26.94369        55.05123         1.77947
C         26.91401        56.45677         1.48534
C         29.52430        12.51639         1.04746
C         30.82530        14.68292         0.44855
C         29.56124        14.01829         0.92496
C         30.80116        16.00418         0.02428
C         29.52642        16.67321        -0.28523
C         30.74894        18.76080        -0.86093
C         29.56939        18.04458        -0.78225
C         30.80106        20.18870        -1.28026
C         29.47735        20.95394        -1.58423
C         30.62305        23.10226        -1.06385
C         29.43325        22.38196        -1.23506
C         30.61252        24.54113        -0.89843
C         29.31602        25.28167        -0.91926
C         30.54168        27.45444        -1.10721
C         29.30034        26.69483        -1.38357
C         30.67153        28.78750        -1.80521
C         29.35506        29.53202        -1.89880
C         30.65230        31.71893        -1.79549
C         29.42553        30.99600        -2.15618
C         30.69303        33.17588        -1.95769
C         29.35756        33.96580        -2.10183
C         30.62522        36.13589        -1.37403
C         29.36559        35.45306        -1.83920
C         30.57777        37.50757        -0.79375
C         29.35317        38.18699        -0.66197
C         30.54532        40.17766         0.16139
C         29.31093        39.47517        -0.03283
C         30.52651        41.56550         0.56781
C         29.33533        42.18051         0.92801
C         30.56038        44.35956         1.14368
C         29.34978        43.55272         1.54711
C         30.53239        45.75585         1.25453
C         29.29739        46.42559         1.50463
C         30.53592        48.64959         1.34733
C         29.33493        47.88674         1.88226
C         30.48690        50.03374         1.27177
C         29.32142        50.79244         1.65327
C         29.29997        52.15747         1.69672
C         32.00408        16.77340        -0.10363
C         33.18772        18.91320        -0.40343
C         31.99958        18.13270        -0.45023
C         33.18588        20.31607        -0.57430
C         31.95345        21.00138        -0.88538
C         33.10262        23.17534        -0.80897
C         31.89428        22.40364        -0.94656
C         33.06190        24.57371        -0.79412
C         31.80184        25.25286        -0.74835
C         33.05356        27.52772        -0.37101
C         31.76249        26.73928        -0.60940
C         33.06072        28.91447        -1.01453
C         31.85552        29.59278        -1.35043
C         33.06242        31.74596        -1.33295
C         31.83736        31.01826        -1.46384
C         33.07699        33.16092        -1.25163
C         31.88439        33.88118        -1.45118
C         33.02906        35.94967        -0.45936
C         31.78660        35.27472        -0.98827
C         33.06393        37.44051        -0.43004
C         31.79808        38.15466        -0.47662
C         33.01097        40.25889         0.00468
C         31.78002        39.53908        -0.10970
C         33.00639        41.61919         0.32720
C         31.77589        42.29705         0.58721
C         33.00665        44.43721         0.74099
C         31.77260        43.68853         0.83429
C         32.97159        45.82768         0.83829
C         31.75207        46.52398         1.05353
C         31.71704        47.92625         1.04938
C         34.37803        21.07735        -0.50428
C         35.57879        23.21574        -0.60702
C         34.37426        22.47581        -0.66978
C         35.60544        24.62182        -0.72169
C         34.32973        25.34725        -1.09430
C         35.49961        27.46129        -0.44764
C         34.33550        26.78258        -0.63992
C         35.46604        28.94781        -0.42486
C         34.28019        29.57329        -1.05699
C         35.63885        31.73258        -1.39163
C         34.32279        30.99725        -1.41163
C         35.59240        33.17955        -1.06090
C         34.33947        33.85635        -0.99243
C         35.49649        35.97354        -0.56677
C         34.30816        35.22960        -0.63860
C         35.47160        37.30658         0.17467
C         34.25280        38.10152        -0.24226
C         35.52043        40.24867         0.18263
C         34.30086        39.59787        -0.42176
C         35.49090        41.59164         0.45374
C         34.25995        42.34932         0.43045
C         34.23943        43.72170         0.59692
C         36.78935        25.34751        -0.61103
C         37.97367        27.49342        -0.38630
C         36.80128        26.78326        -0.51836
C         37.98116        28.90793         0.15168
C         36.74120        29.71079        -0.27808
C         38.17240        31.76373        -0.87786
C         36.93919        30.91433        -1.20617
C         38.15359        33.28122        -0.83868
C         36.79382        33.91437        -0.95027
C         38.41513        36.28052         0.09694
C         36.68228        35.31171        -0.90670
C         37.97831        37.38656         0.76400
C         36.76825        38.10391         0.31492
C         36.71417        39.46708         0.39767
C         39.26296        29.67829        -0.03105
C         40.51738        31.77554        -0.02386
C         39.31884        31.01087        -0.30179
C         40.47272        33.12504         0.12701
C         39.29859        33.94932        -0.10706
C         39.35870        35.23203         0.40853
O         21.01758        25.21449        -0.66998
O         22.05212        21.18363        -2.51089
O         26.34469        24.42321        -3.47085
O         24.22538        30.03541        -0.71307
O         19.54861        39.19666        -2.12845
O         22.50668        29.14772        -3.80331
O         25.96573        41.50517         2.34438
O         22.34770        37.59421         0.92333
O         24.88218        55.09449         3.12614
O         27.67289        13.73043        -0.79893
O         17.24258        39.47872         0.51565
O         30.37620        20.54371        -2.63746
O         13.45894        35.58689        -2.95253
O         21.96022        34.91860        -2.62652
O         37.81103        36.07190        -1.16368
O         22.52182         6.39819         5.21978
O         30.14863        33.63398        -3.26110
O         23.67558        48.31446         0.39271
O         17.23679        20.34611        -1.37307
O         28.54320        25.08725         0.33205
O         10.91744        31.49705         1.73461
O         27.63432        50.20344         3.39327
O         19.16605        42.80634         1.62732
O         19.56006        50.36697         3.30687
O         24.20562         8.89283         4.65982
O         10.88584        33.88926         1.56135
O         12.27489        42.55143        -2.07517
O         30.77122        27.31121         0.33164
O         38.57533        32.56413        -2.04351
O         20.14652        48.63654         0.27446
O         20.92549        45.74692         2.68379
O         14.04129        30.34440        -2.78545
O         23.72990        35.16548         0.53645
O         22.71482        18.94420         1.47568
O         22.60005        31.74092        -3.45138
O         24.85925        45.96605         3.11287
O         35.03740        31.40281        -2.67759
O         28.14650        19.07326        -2.57642
O         26.36155        26.15059        -0.31816
O         23.53718        27.04817        -0.85943
O         13.69147        20.88928         1.64834
O         28.84892        31.42571        -3.45171
O         32.06956        35.35804         0.47331
O         23.16457        24.13797        -0.30939
O         30.25051        36.12964        -2.78152
O         16.59595        38.08755        -2.98185
O         25.27009        21.00345         0.45066
O         14.28834        25.82018        -2.56271
O         27.87163        37.25721        -2.50680
O         17.13070        26.24583         0.00808
O         26.16478        15.83874         1.60901
O         16.63173        44.59563        -1.62176
O         13.89470        23.65283         1.23062
O         16.54466        46.94489         2.15587
O         35.77982        29.78001         0.80462
O         10.07636        36.27928         1.58059
H         10.69289        35.67839         2.06452
O         24.24862        52.31039         3.96953
H         24.34509        53.26253         4.19837
O         20.03842        22.56008        -3.11356
H         20.57873        21.77292        -3.38018
O         23.10877        15.66021        -1.27931
H         22.36189        15.02568        -1.32826
O         20.73454        44.96506        -0.89390
H         21.51776        45.54978        -0.97286
O         37.91853        28.71335         1.59841
H         36.97865        28.88227         1.85977
O         21.94867        50.90467         3.95756
H         21.03579        50.99678         4.31786
O         21.79063        26.41861        -4.03325
H         21.97329        27.28509        -4.46514
O         25.25611         5.92894         1.93679
H         25.15661         4.95672         2.02032
O         24.55223        39.92508        -1.86446
H         25.39502        39.52738        -2.17604
O         26.76238        16.12429        -2.00313
H         27.33787        16.64879        -2.60031
O         27.06718        29.48546        -3.97642
H         27.79016        30.11561        -4.21913
O         33.12132        27.80196         1.05964
H         32.19611        27.95944         1.36336
O         11.48284        20.56024        -1.21081
H         11.86952        21.21157        -1.83267
O         35.21668        36.90938         1.56929
H         34.32782        36.49446         1.61504
O         30.98789        28.40301        -3.18970
H         31.02743        29.21981        -3.73216
O         24.02360        25.10116        -3.76954
H         24.88598        24.83984        -4.21023
O         14.59301        50.95970         0.30597
H         14.94528        50.80979        -0.59491
O         29.40227        47.92156         3.32961
H         30.14667        47.35451         3.61958
O         28.38435        40.80293         2.58758
H         27.48763        40.61586         2.96451
O         25.85718        32.74274         0.26677
H         25.14345        32.12218         0.53162
O         27.89510        22.61783         0.55611
H         28.17952        23.39018         1.10173
O         28.09545        48.72368         0.01951
H         27.21374        49.01621        -0.29336
O         27.41606        22.18345        -3.00362
H         27.10014        23.00116        -3.49835
O         29.38348        14.51195         2.31377
H         30.17423        14.24702         2.82974
O         15.22474        41.49305         0.96509
H         15.88447        40.84014         1.30108
O         25.31941         6.48979         5.54352
H         24.59433         6.51173         6.20460
O         28.43808        52.90960         3.76637
H         28.30435        51.97736         4.06712
O         24.60165        55.87758        -0.44452
H         24.61591        56.66617        -1.02709
O         14.08012        38.47146        -3.48764
H         14.94778        38.56938        -3.94262
O         18.88855        24.95710        -3.62218
H         19.15252        24.03052        -3.84244
O         20.72226        32.81323         0.08060
H         19.91873        32.31724         0.34700
O         34.34065        25.43414        -2.56742
H         34.38134        24.51886        -2.91847
O         29.51127        43.32021         2.99769
H         29.10421        42.43810         3.19648
O         10.09056        29.15920         2.15449
H         10.73976        29.80279         2.52507
O         15.65959        19.28525         2.65902
H         14.81754        19.78281         2.79452
O         12.68887        23.83995        -2.22445
H         12.88638        24.50509        -2.92520
O         19.95866        22.94689         0.53880
H         20.34719        23.85246         0.46095
O         10.33764        37.22923        -2.64034
H         11.15276        36.95598        -3.11600
O         17.17316        17.10920         3.01325
H         16.55606        17.84102         3.26206
O         34.42088        39.82529        -1.87350
H         33.60675        39.47853        -2.29687
O         37.25031        30.27540        -2.46208
H         37.48852        30.98440        -3.09939
O         14.17662        44.50247        -2.42226
H         15.06924        44.44862        -2.83290
H          5.16961        31.34240         0.83429
H          5.14955        33.81837         0.64329
H          7.44533        27.09442         0.28769
H          6.32375        29.29420         0.55292
H          6.27425        35.81892         0.05350
H          7.35680        38.00245        -0.40018
H          9.79825        22.73522         0.20163
H          8.67750        24.91584         0.48308
H          8.65153        40.14264        -0.25504
H          9.63987        42.07858        -0.06700
H         12.81023        18.42259        -0.49312
H         10.87374        20.70647         0.76245
H         11.15569        44.25404         0.61625
H         12.19999        46.43891         0.45097
H         15.03451        14.30578         1.08976
H         13.87793        16.37779         0.43616
H         13.37467        48.62920         0.57936
H         14.95575        50.42541         2.25155
H         17.49642        10.16884         2.49821
H         16.24082        12.24448         1.92608
H         15.98880        52.90084         1.09550
H         17.30320        54.94230         0.86855
H         20.04695         6.00207         3.12891
H         18.76059         8.07842         2.91617
H         18.57737        57.02413         0.72278
H         19.83953        59.12381         0.54993
H         23.53541         2.71031         4.06198
H         21.44468         3.82936         3.35216
H         23.30326        62.44083         0.35200
H         21.12059        61.24891         0.37617
H         25.55983         3.95970         4.64783
H         26.75694         5.97537         3.40482
H         26.63535        59.11094         1.14579
H         25.43590        61.19574         0.65711
H         27.90157         7.87684         2.34684
H         29.19759         9.91225         1.80220
H         29.07090        54.85937         1.69500
H         27.86353        57.01400         1.51021
H         30.47044        11.96000         1.14053
H         31.79326        14.20064         0.65954
H         31.38376        50.58751         0.95205
H         30.21222        52.72200         1.44678
H         32.95788        16.30102         0.17783
H         34.13812        18.41103        -0.16724
H         33.90426        46.40366         0.74514
H         32.63297        48.48136         0.79387
H         35.33481        20.56106        -0.33362
H         36.52063        22.67941        -0.41286
H         36.40628        42.10135         0.79238
H         35.18463        44.28300         0.64022
H         37.74096        24.80789        -0.48379
H         38.93224        26.95174        -0.40616
H         38.48307        37.73100         1.67978
H         37.62685        40.01824         0.67520
H         40.16987        29.18734         0.35710
H         41.44413        31.22809         0.20164
H         41.37941        33.64924         0.46517
H         40.21707        35.47839         1.05472
