         598
 CSIRO Nanostructure Databank - Neutral Graphene Oxide Data Set
C         23.00457        69.91043         1.43573
C         22.94657        71.31257         1.30125
C         21.85017        72.13163         1.73930
C         23.13320        74.26238         2.14347
C         21.97065        73.46212         2.14599
C         25.44909        65.64617         0.95473
C         25.43184        67.06431         0.94867
C         24.24105        67.78842         1.18864
C         25.41523        69.91682         0.83393
C         24.20287        69.20159         1.13562
C         25.38131        71.34140         0.71585
C         24.10246        71.93955         0.76076
C         25.60638        74.27132         1.48983
C         24.25295        73.96272         1.33243
C         27.72394        61.27094         0.19689
C         27.30221        62.63425        -0.06450
C         26.54138        63.45329         0.72600
C         27.81292        65.61614         0.31263
C         26.58505        64.90915         0.59451
C         27.84343        67.02668         0.50102
C         26.66389        67.76564         0.72983
C         27.80808        69.93692         0.32864
C         26.65450        69.21383         0.66808
C         27.77263        71.39356         0.12136
C         26.56261        72.13640         0.52571
C         27.95738        74.15460         0.86848
C         26.67166        73.51920         0.87775
C         30.27101        57.11962         0.17534
C         30.30222        58.51700         0.00862
C         29.06842        59.27294         0.43790
C         30.12840        61.33075        -0.71842
C         28.92829        60.69012        -0.10180
C         30.18917        62.84337        -0.93891
C         29.03819        63.71811        -0.68978
C         30.37154        65.56700         0.20955
C         29.04808        64.92198        -0.02296
C         30.42146        67.05272         0.34980
C         29.12278        67.76728         0.55887
C         30.37529        69.96233         0.07320
C         29.11050        69.26691         0.41674
C         30.37896        71.35239         0.08104
C         29.11344        72.12059         0.06484
C         30.41231        74.16533         0.61220
C         29.15230        73.52550         0.51473
C         32.72607        52.67842         0.34326
C         32.63019        54.10259         0.03446
C         31.42304        54.91676         0.23116
C         32.68173        56.97826        -0.34404
C         31.41416        56.29012         0.01773
C         32.70699        58.45139        -0.57157
C         31.45974        59.22075        -0.38058
C         32.65792        61.29616        -0.94717
C         31.47088        60.64252        -0.61919
C         32.70053        62.75321        -1.41480
C         31.53966        63.45360        -0.74622
C         32.80967        65.65780        -0.57990
C         31.61337        64.85852        -0.24508
C         32.78146        67.08293        -0.50238
C         31.61555        67.80416        -0.11092
C         32.79107        69.96767        -0.43717
C         31.59119        69.22280        -0.13086
C         32.77627        71.39763        -0.34253
C         31.60545        72.08221        -0.01226
C         32.86442        74.17795         0.36373
C         31.62051        73.51199         0.28398
C         35.27829        48.45991         0.22473
C         35.19902        49.85889         0.14432
C         33.99837        50.56758         0.33706
C         35.21329        52.71646         0.25152
C         33.94444        51.99088         0.25948
C         35.18514        54.15971         0.51499
C         33.97090        54.87298         0.05801
C         35.20930        57.12591         0.28683
C         33.92483        56.34687         0.20257
C         35.17201        58.53920        -0.16821
C         34.00705        59.17042        -0.49417
C         35.22836        61.32677        -1.17798
C         33.94624        60.56824        -1.00324
C         35.24349        62.82180        -1.20581
C         33.99625        63.51821        -1.14240
C         35.18994        65.70510        -1.21509
C         33.96085        64.92949        -0.99349
C         35.19293        67.13606        -0.93010
C         33.99337        67.84210        -0.76490
C         35.21847        70.01237        -1.11321
C         33.98437        69.27592        -0.74058
C         35.27427        71.51451        -1.01237
C         33.99016        72.19990        -0.61852
C         35.32407        74.15207         0.09538
C         34.07016        73.55067        -0.02543
C         37.70218        44.08978         0.22476
C         37.75584        45.59666         0.08393
C         36.57250        46.31500         0.17588
C         37.70940        48.44646        -0.15424
C         36.51340        47.75292         0.07929
C         37.73511        49.90901        -0.32831
C         36.41829        50.63733        -0.18669
C         37.69338        52.79046         0.22291
C         36.43390        52.07773         0.14235
C         37.73769        54.18930         0.36507
C         36.50117        54.95481         0.57211
C         37.71537        57.08124         0.12910
C         36.50231        56.40380         0.29188
C         37.74617        58.50594        -0.07665
C         36.46898        59.25813        -0.13991
C         37.78777        61.24697        -1.02720
C         36.47528        60.67165        -0.63872
C         37.77071        62.76385        -1.24065
C         36.47459        63.47656        -1.16846
C         37.78748        65.62780        -0.95037
C         36.53212        64.93657        -1.26688
C         37.78217        67.06763        -0.69129
C         36.47008        67.81989        -0.70012
C         37.79521        69.98994        -0.85528
C         36.52624        69.26350        -1.03740
C         37.78662        71.41067        -0.91057
C         36.57517        72.19758        -0.78025
C         37.75326        74.23016         0.19568
C         36.56657        73.52600        -0.25356
C         40.31023        39.86995         0.35398
C         40.29092        41.27350         0.18588
C         39.06938        42.00760         0.20834
C         40.24756        44.11318        -0.12871
C         39.03576        43.38963         0.06787
C         40.23485        45.57022        -0.25642
C         38.99409        46.25744        -0.16958
C         40.26137        48.49971        -0.36306
C         38.94380        47.70741        -0.38764
C         40.22843        49.93411         0.03018
C         38.97968        50.66201        -0.02465
C         40.15201        52.76501         0.61286
C         38.93011        52.03245         0.21668
C         40.19929        54.23326         0.45271
C         38.97722        54.93443         0.33178
C         40.20068        57.07631         0.37123
C         38.97597        56.36262         0.25278
C         40.21644        58.53664         0.22603
C         38.96879        59.20706        -0.11591
C         40.18228        61.33898        -0.44339
C         39.00031        60.59211        -0.51619
C         40.20627        62.76865        -0.73695
C         39.02250        63.48472        -1.02373
C         40.22647        65.67017        -0.88540
C         39.00480        64.93299        -0.95039
C         40.22834        67.08056        -0.82946
C         39.03625        67.82618        -0.78813
C         40.25098        70.00091        -0.72831
C         39.02327        69.27321        -0.78099
C         40.28860        71.40770        -0.82690
C         39.04954        72.03589        -1.07754
C         40.31604        74.31717         0.19076
C         39.02589        74.01669        -0.31879
C         42.73884        35.57595         1.08806
C         42.75904        37.05028         0.75143
C         41.56030        37.74622         0.64872
C         42.76377        39.83703         0.18077
C         41.52545        39.14805         0.39151
C         42.77446        41.27114        -0.01113
C         41.52055        41.99658         0.04114
C         42.73571        44.16245        -0.11137
C         41.47275        43.40221        -0.10379
C         42.72694        45.55632        -0.70808
C         41.45119        46.29759        -0.37371
C         42.71081        48.38270        -0.00571
C         41.49891        47.70781        -0.22057
C         42.67460        49.80137         0.38700
C         41.41486        50.55839         0.35176
C         42.72081        52.75927         0.49457
C         41.46426        51.99416         0.69232
C         42.69215        54.18935         0.53089
C         41.42912        54.93016         0.56646
C         42.65611        57.08628         0.89754
C         41.40394        56.35342         0.60343
C         42.63281        58.62133         1.02625
C         41.37819        59.29267         0.41685
C         42.35289        61.62153         0.52726
C         41.33261        60.72259         0.16942
C         42.55849        62.90050        -0.06781
C         41.43313        63.50175        -0.63629
C         42.75587        65.65264        -0.77041
C         41.50055        64.90922        -1.16381
C         42.76733        67.01978        -0.90038
C         41.51772        67.78940        -0.72083
C         42.74213        70.08343        -1.12785
C         41.53852        69.28465        -0.62598
C         42.74628        71.50183        -0.57408
C         41.52201        72.18334        -0.58039
C         42.73465        74.22294         0.09468
C         41.49023        73.57859        -0.13560
C         45.28374        32.76577         0.67126
C         44.06713        33.46798         0.80943
C         45.25940        35.58056         0.67351
C         44.04381        34.85883         0.82061
C         45.26549        37.01390         0.60990
C         43.99437        37.73572         0.58202
C         45.25093        39.76749        -0.07081
C         43.97221        39.11411         0.27232
C         45.25270        41.23760        -0.41261
C         43.98255        41.94719        -0.21688
C         45.25439        44.10789        -0.69341
C         44.03326        43.40838        -0.13291
C         45.24065        45.59207        -0.37197
C         44.00488        46.29208        -0.38209
C         45.18267        48.42049        -0.07046
C         43.97868        47.69720        -0.09932
C         45.16181        49.88432        -0.13204
C         43.95923        50.60071         0.36568
C         45.17297        52.77899         0.21782
C         43.92923        52.07990         0.29832
C         45.15807        54.20140         0.29224
C         43.91612        54.87840         0.41956
C         45.19538        57.02786         0.26011
C         43.95710        56.33005         0.67293
C         45.07379        58.44442        -0.08740
C         43.95391        59.20361         0.49428
C         45.24386        61.31760         0.14957
C         44.18309        60.53371         0.69266
C         45.13195        62.80622         0.26344
C         43.86701        63.55700        -0.03148
C         45.20406        65.62712        -0.34926
C         43.95094        64.89789        -0.41756
C         45.21023        67.06287        -0.39786
C         44.02110        67.79498        -0.84364
C         45.16349        69.99054        -0.20546
C         44.04325        69.31234        -0.90468
C         45.21112        71.44016        -0.09165
C         43.98945        72.14965        -0.25533
C         45.20549        74.28982         0.05129
C         43.97477        73.57634        -0.03218
C         46.48075        33.44760         0.57502
C         47.71901        35.58991         0.49991
C         46.50051        34.87201         0.57653
C         47.73400        36.99587         0.49114
C         46.48396        37.69194         0.51585
C         47.76424        39.85649         0.14319
C         46.48617        39.19474         0.58229
C         47.75078        41.22630        -0.17510
C         46.54410        41.96402        -0.32584
C         47.71422        44.09822        -0.10925
C         46.54468        43.38687        -0.34288
C         47.66862        45.54187         0.17378
C         46.43554        46.27123        -0.14977
C         47.70997        48.48099         0.10096
C         46.48436        47.74707        -0.41765
C         47.68650        49.86484         0.11364
C         46.46707        50.65224        -0.15279
C         47.62510        52.80889         0.34078
C         46.42899        52.09758         0.17679
C         47.61685        54.23185         0.35804
C         46.40510        54.91978         0.28692
C         47.65846        57.06983        -0.13960
C         46.39916        56.36528         0.13338
C         47.66508        58.46974        -0.36289
C         46.38126        59.19421        -0.40039
C         47.65807        61.31595        -0.42005
C         46.41000        60.65049        -0.21059
C         47.59747        62.78576        -0.53924
C         46.42621        63.52487         0.00328
C         47.67962        65.68153        -0.22839
C         46.42144        64.97379        -0.22894
C         47.64811        67.12799         0.12352
C         46.31989        67.77475         0.02217
C         47.96166        70.20942         0.34798
C         46.13176        69.15926         0.33251
C         47.74160        71.58728         0.01256
C         46.46217        72.17969         0.01829
C         47.67465        74.37281        -0.06173
C         46.44333        73.63660        -0.02227
C         48.96150        37.73828         0.44574
C         50.24794        39.84986         0.23850
C         48.99741        39.13282         0.27235
C         50.30062        41.22319         0.04866
C         49.04202        41.92789        -0.29599
C         50.23591        44.09685         0.45923
C         49.02298        43.43802        -0.18689
C         50.25451        45.58574         0.22136
C         48.96612        46.29478         0.34363
C         50.18203        48.42574         0.24652
C         48.95766        47.76614         0.22970
C         50.18557        49.85708         0.54730
C         48.87341        50.61815         0.51412
C         50.16366        52.80940         0.67209
C         48.93603        52.09284         0.10794
C         50.19580        54.30423         0.60161
C         48.88418        55.00825         0.44802
C         50.14505        57.08195        -0.20477
C         48.89997        56.40653        -0.02367
C         50.14688        58.48543        -0.49602
C         48.88280        59.17743        -0.51117
C         50.07288        61.34811        -0.98936
C         48.83542        60.61490        -0.63180
C         50.12335        62.81231        -0.66292
C         48.84547        63.57061        -0.76926
C         50.12181        65.72598        -0.75874
C         48.86393        65.00966        -0.44524
C         50.11149        67.23117        -0.66127
C         48.93445        67.94591        -0.05053
C         50.07490        70.11419        -0.90514
C         48.92561        69.41957        -0.21491
C         50.10966        71.60328        -0.56567
C         48.95647        72.31053        -0.28138
C         50.17440        74.46415        -0.27758
C         48.93211        73.76529        -0.21865
C         51.51124        41.98779         0.05058
C         52.70670        44.15041        -0.02465
C         51.52538        43.39078         0.09872
C         52.71457        45.57157        -0.00300
C         51.43918        46.27751         0.09065
C         52.64024        48.42423        -0.08365
C         51.44060        47.72965         0.06753
C         52.62026        49.89023        -0.24449
C         51.39082        50.64415         0.16470
C         52.77217        52.83458         0.61186
C         51.45511        52.07345         0.62333
C         52.66174        54.28813         0.17304
C         51.45068        54.98509         0.18823
C         52.63690        57.07318        -0.34752
C         51.40895        56.38201        -0.11840
C         52.62376        58.48513        -0.62405
C         51.38940        59.16905        -0.70549
C         52.64484        61.40457        -1.03821
C         51.37694        60.61325        -1.05126
C         52.65454        62.77624        -0.98134
C         51.42552        63.54359        -0.64833
C         52.60599        65.74873        -0.81354
C         51.42084        65.02635        -0.76965
C         52.58259        67.20972        -0.76907
C         51.41054        67.91464        -0.61200
C         52.63430        70.13651        -0.44847
C         51.35270        69.39269        -0.45060
C         52.65803        71.58765        -0.80544
C         51.36598        72.34621        -0.78716
C         52.65847        74.43263        -0.29636
C         51.40606        73.79989        -0.46840
C         53.90590        46.31936        -0.08781
C         55.12267        48.48928        -0.16146
C         53.91519        47.74275        -0.12545
C         55.18315        49.91006        -0.21882
C         53.90931        50.65141        -0.36530
C         55.18617        52.83313         0.01362
C         53.90051        52.12978        -0.11989
C         55.14550        54.24703        -0.02557
C         53.89095        54.96636        -0.06863
C         55.13018        57.05761        -0.54243
C         53.88422        56.36870        -0.30960
C         55.09073        58.47080        -0.84762
C         53.88163        59.16273        -0.86440
C         55.19454        61.37104        -1.26095
C         53.88059        60.60897        -1.23999
C         55.20157        62.86896        -1.23005
C         53.87841        63.59225        -1.15898
C         55.09115        65.67259        -0.58308
C         53.88063        65.03551        -0.79686
C         55.15410        67.15551        -0.56660
C         53.86971        67.94369        -0.77060
C         55.06084        70.04569         0.02350
C         53.87501        69.37492        -0.50474
C         55.19848        71.51579        -0.23188
C         53.95928        72.31533        -0.62532
C         55.13422        74.37556         0.00362
C         53.91748        73.75870        -0.31083
C         56.36556        50.65186        -0.09685
C         57.60719        52.82850         0.04070
C         56.39453        52.09046        -0.03816
C         57.61115        54.22884        -0.02368
C         56.36745        54.96161        -0.16010
C         57.68285        56.93167        -0.90576
C         56.35383        56.34924        -0.44744
C         57.69195        58.45944        -0.98258
C         56.37874        59.19610        -1.07069
C         57.61299        61.35182        -0.70084
C         56.42497        60.66126        -0.88333
C         57.60335        62.80734        -0.64939
C         56.43419        63.55413        -0.77650
C         57.51104        65.68065        -0.09086
C         56.36760        64.97632        -0.51093
C         57.46275        67.07945         0.27638
C         56.31114        67.80450         0.07942
C         57.51858        69.98690         0.65497
C         56.25404        69.23789         0.46371
C         57.39441        71.45755         1.06597
C         56.34311        72.23162         0.32580
C         57.58732        74.31479         0.50273
C         56.34013        73.64233         0.28691
C         58.82405        54.97691         0.11325
C         60.02381        57.10913         0.04048
C         58.86124        56.34065        -0.15973
C         60.05963        58.50633        -0.15257
C         58.88199        59.22668        -0.54100
C         60.09446        61.34964        -0.24577
C         58.86760        60.63120        -0.49856
C         60.12539        62.76822        -0.19617
C         58.88273        63.51311        -0.49547
C         60.00639        65.59142         0.50056
C         58.81233        64.99203        -0.15564
C         59.93378        67.02951         0.90742
C         58.60934        67.79489         0.98318
C         59.96387        70.01156         0.61713
C         58.69620        69.29067         0.66574
C         59.97022        71.38649         0.64850
C         58.80508        72.17843         1.21023
C         60.01933        74.31417         0.71839
C         58.78598        73.63222         0.74069
C         61.26973        59.23358         0.04819
C         62.64734        61.30855        -0.04698
C         61.30644        60.60977        -0.05226
C         62.57903        62.79929         0.18511
C         61.32661        63.48915         0.05936
C         62.48989        65.58594         0.61684
C         61.32044        64.91116         0.29722
C         62.47252        67.02334         1.10290
C         61.21450        67.76344         0.66898
C         62.52169        69.92764         0.69715
C         61.22611        69.24106         0.45088
C         62.53890        71.40029         0.58401
C         61.22651        72.15191         0.48953
C         62.48445        74.26262         0.86958
C         61.25509        73.61578         0.74775
C         63.74308        63.48638         0.47145
C         64.94082        65.60179         0.97170
C         63.75482        64.90364         0.67156
C         64.99073        67.02588         1.08150
C         63.73998        67.75359         0.62946
C         64.86707        69.95373         1.41965
C         63.66304        69.23133         0.95705
C         64.92907        71.41972         1.24156
C         63.75770        72.13297         0.94112
C         64.95118        74.23816         1.20326
C         63.73700        73.56264         0.97530
C         66.15352        67.70975         1.35451
C         67.40319        69.95536         1.48767
C         66.18159        69.17014         1.57301
C         67.39144        71.35876         1.54756
C         66.15317        72.09875         1.43558
C         67.40970        74.20887         1.51477
C         66.16603        73.53098         1.38434
C         68.60845        72.09758         1.62160
C         68.60117        73.49120         1.62656
O         27.83760        63.24388        -1.22592
O         36.98630        50.36258        -1.51461
O         23.95238        73.18863         0.17618
O         39.60671        48.20025        -1.62345
O         49.87758        66.58976        -1.95183
O         28.35262        71.86155        -1.16315
O         30.62574        66.16494         1.51786
O         33.43269        54.43661        -1.18912
O         29.21455        68.61139         1.75531
O         43.43081        56.57375         2.04167
O         43.28058        61.25171         1.48493
O         54.80283        67.66669        -1.90761
O         47.03728        69.68024         1.25792
O         53.79333        51.61297        -1.47642
O         44.38429        68.54518        -2.10312
O         61.23212        68.29268        -0.70274
O         54.59299        63.41632        -2.43541
O         50.75610        52.28478         1.89550
O         65.32439        69.54283         2.73664
O         59.92789        65.97909         1.93566
O         31.85648        63.69655         0.65695
O         51.86098        69.87857         0.83159
O         48.52065        67.45030         1.25600
O         48.18450        45.85606         1.55465
O         34.42430        72.15829        -2.02554
O         34.62551        60.69486        -2.34356
O         45.99010        63.25125         1.38126
O         51.65487        50.38861        -1.24077
O         49.55252        54.90868         1.77417
O         43.52012        43.99919         1.10986
O         57.15150        58.86093        -2.28901
O         48.97619        52.19316        -1.29578
O         47.97595        63.22977        -1.89490
O         54.59671        60.84808        -2.49244
O         43.46580        50.06084         1.62300
O         49.22016        42.78712        -1.47859
O         32.72811        57.48373        -1.70976
O         59.12102        64.55246        -1.51715
O         55.21763        69.60521         1.43589
O         35.73965        54.57088         1.78587
O         29.99080        61.93568        -2.04746
O         34.35002        56.87579         1.48226
O         37.84697        61.78730        -2.36411
O         40.71829        52.33208         1.90312
O         41.67927        68.51689         0.60011
O         37.04539        67.44336         0.59411
O         45.45315        58.76362        -1.46466
O         54.93505        71.90260        -1.62767
O         45.72624        50.37996        -1.40615
O         61.97304        71.81591        -0.72356
O         50.78683        63.07168         0.61966
O         45.30820        40.17924        -1.45507
O         59.14872        72.17913         2.57477
O         35.87849        65.43686        -2.48971
O         35.87542        69.51266        -2.32952
O         49.47715        50.20924         1.76816
O         52.01563        71.93116        -2.07579
O         36.42139        60.42300         0.79620
O         50.60840        60.94220        -2.28190
O         39.06054        73.33405        -1.56309
O         63.81493        67.67203        -0.81574
H         62.94674        67.98185        -1.18045
O         46.33245        39.54818         2.00531
H         47.08184        39.14618         2.49407
O         57.85157        56.42916        -2.26328
H         57.42166        57.08642        -2.86111
O         42.53569        70.23194        -2.55366
H         43.15428        69.60678        -3.00321
O         32.51785        62.76635        -2.84724
H         33.17593        62.14353        -3.23095
O         46.59584        47.84347        -1.89660
H         46.44585        48.79740        -2.12383
O         41.65029        34.92060         0.42575
H         41.80725        34.96570        -0.53950
O         56.83277        71.47019         2.39758
H         57.62915        71.66124         2.99060
O         45.13697        43.99370        -2.13631
H         45.89800        44.45317        -2.54907
O         62.49017        67.00366         2.54539
H         61.68284        66.52336         2.84134
O         42.68659        45.34659        -2.15641
H         42.68237        46.22431        -2.59267
O         36.74352        43.54926        -0.69879
H         37.05041        43.74395        -1.60809
O         41.58806        64.81066        -2.63108
H         40.82328        64.27927        -2.94114
O         53.24855        52.86826         1.98641
H         52.44685        52.96019         2.55575
O         42.52125        58.91911         2.43278
H         43.02562        58.22467         2.91621
O         50.06886        43.90859         1.89918
H         49.36058        44.53973         2.18606
O         63.54263        60.69195         0.88725
H         63.20881        60.86174         1.79166
O         49.97085        69.99244        -2.33950
H         50.65221        70.58862        -2.73265
O         58.23556        67.81277         2.39027
H         58.49482        66.94551         2.77651
O         27.88221        58.52599         0.14883
H         27.80403        58.44059        -0.82367
H         23.18773        75.10905         2.84295
H         25.89180        75.09272         2.16441
H         28.00474        75.20176         1.20441
H         30.44671        75.21759         0.93200
H         32.89255        75.21985         0.71675
H         35.37314        75.16311         0.52782
H         37.62831        74.93315         1.03294
H         40.43260        75.18114         0.86362
H         42.72474        75.29311         0.35186
H         45.17524        75.38686         0.13256
H         47.61580        75.47128        -0.01562
H         50.17795        75.55384        -0.12134
H         52.66127        75.50618        -0.05122
H         55.15923        75.46708         0.14122
H         57.62338        75.40245         0.32596
H         60.03155        75.41452         0.65374
H         62.49785        75.35742         0.98458
H         64.96403        75.33796         1.22114
H         67.42713        75.30785         1.50018
H         22.12336        69.35199         1.78274
H         20.90527        71.61879         1.97493
H         21.09849        73.88061         2.67382
H         24.52096        65.10925         1.20061
H         23.31422        67.23649         1.40549
H         27.02101        60.64797         0.77583
H         25.94580        63.03133         1.54923
H         29.31459        56.66047         0.46696
H         29.11761        59.34675         1.56297
H         31.80447        52.11950         0.56196
H         30.51129        54.41393         0.58659
H         34.36425        47.88344         0.42851
H         33.06553        50.00858         0.50255
H         37.30823        43.84849         1.25049
H         35.63312        45.76508         0.33347
H         39.35973        39.33199         0.48735
H         38.12573        41.46343         0.36151
H         42.52713        35.48491         2.19214
H         40.61356        37.20227         0.78267
H         45.27375        31.66692         0.66227
H         43.12349        32.91440         0.91497
H         47.43015        32.89928         0.49323
H         48.66778        35.03539         0.44771
H         49.90975        37.18345         0.50147
H         51.17527        39.28885         0.42938
H         52.46982        41.44630         0.01259
H         53.66041        43.62282        -0.18347
H         54.86628        45.78359        -0.13651
H         56.07225        47.93388        -0.11027
H         57.32349        50.11448        -0.02112
H         58.56545        52.29158         0.10382
H         59.72843        54.46728         0.47987
H         60.92961        56.60898         0.41639
H         62.19969        58.68204         0.24891
H         63.10362        61.14332        -1.06465
H         64.68647        62.92625         0.55260
H         65.86923        65.02779         1.11736
H         67.08969        67.15068         1.51275
H         68.36247        69.43134         1.35835
H         69.55992        71.55210         1.69555
H         69.55302        74.03472         1.70734
