         598
 CSIRO Nanostructure Databank - Neutral Graphene Oxide Data Set
C         23.63418        70.05078         2.95229
C         23.78582        71.41472         3.25729
C         23.06829        72.04497         4.28791
C         24.37239        74.10417         4.07416
C         23.36138        73.37180         4.67003
C         25.68889        65.74684         1.74253
C         25.68618        67.15977         1.70746
C         24.58403        67.91653         2.17338
C         25.72729        70.03187         1.62635
C         24.59001        69.32843         2.18490
C         25.69636        71.51329         1.55052
C         24.73551        72.23530         2.46686
C         26.16419        74.28346         2.40637
C         25.12514        73.58313         2.96565
C         28.18773        61.48252         1.47943
C         28.10957        62.86506         1.18977
C         26.89216        63.59448         1.41545
C         27.89345        65.71472         0.62637
C         26.79355        64.98499         1.28433
C         27.97561        67.17271         0.78092
C         26.88352        67.87446         1.28800
C         28.17213        70.02732         1.21992
C         26.87247        69.32162         1.30366
C         28.19448        71.50843         1.01102
C         26.91906        72.26805         1.10323
C         28.33274        74.38639         1.14564
C         26.93627        73.79614         1.20326
C         30.70155        57.23618         2.08751
C         30.65766        58.68396         1.64475
C         29.46016        59.37892         1.68719
C         30.63088        61.46444         1.11543
C         29.41478        60.77689         1.41377
C         30.57403        62.87380         0.80150
C         29.29998        63.53610         0.78243
C         30.44465        65.72285         0.24623
C         29.19272        64.92693         0.33954
C         30.40365        67.15014        -0.18982
C         29.16075        67.89216         0.26256
C         30.62530        69.99175         0.38542
C         29.39212        69.27600         0.75155
C         30.74650        71.39556         0.81690
C         29.51225        72.20601         1.14218
C         30.75184        74.34435         0.70432
C         29.53204        73.68901         0.98733
C         32.94339        52.84572         1.09893
C         32.80135        54.27804         0.78911
C         31.77017        55.07713         1.45205
C         33.06127        57.13967         1.13354
C         31.83404        56.44571         1.46601
C         33.13070        58.61075         1.35887
C         31.86623        59.36750         1.34355
C         33.11469        61.44047         0.74454
C         31.87528        60.76001         1.09009
C         33.12113        62.94757         0.70975
C         31.75942        63.53904         0.44648
C         32.89528        65.61997        -0.43482
C         31.74587        64.99138         0.27056
C         32.87652        67.11421        -0.66283
C         31.69213        67.86868        -0.22989
C         33.01723        69.93761        -0.34140
C         31.76003        69.26303        -0.05458
C         33.00314        71.40577        -0.37139
C         32.00612        72.13040         0.48010
C         33.21090        74.32442        -0.08257
C         32.02348        73.65438         0.48566
C         35.44851        48.69476         1.87739
C         35.37042        50.00852         1.35905
C         34.19552        50.76430         1.37366
C         35.28652        52.74670         0.25272
C         34.09645        52.11485         0.88887
C         35.32416        54.24804         0.08571
C         34.08309        55.04607         0.35217
C         35.55661        57.09095         0.87126
C         34.18773        56.45405         0.72811
C         35.56074        58.55896         0.52624
C         34.39620        59.34010         0.95767
C         35.52988        61.41324         0.12020
C         34.31422        60.76695         0.59513
C         35.48563        62.82268        -0.26121
C         34.24425        63.56461        -0.11131
C         35.26398        65.59139        -1.19920
C         34.16441        64.87747        -0.50975
C         35.32272        67.07985        -1.11456
C         34.17366        67.80692        -0.82468
C         35.42862        69.94677        -0.92436
C         34.17422        69.24480        -0.71823
C         35.48492        71.34699        -0.83777
C         34.27759        72.15924        -0.70492
C         35.62002        74.26103        -0.59915
C         34.36734        73.61992        -0.40023
C         37.89574        44.38053         2.68318
C         37.47682        45.53880         2.05536
C         36.53929        46.57335         2.34766
C         37.87441        48.54080         1.37736
C         36.61314        47.88567         1.79997
C         37.88347        49.90567         1.12673
C         36.61354        50.58928         0.79354
C         37.83851        52.79987         0.19874
C         36.59493        52.00501         0.28397
C         37.84748        54.17682         0.00635
C         36.62869        54.95653         0.08413
C         37.91529        57.04655        -0.01440
C         36.68447        56.32978         0.22268
C         37.92375        58.44971        -0.15166
C         36.70056        59.20554         0.07809
C         37.94492        61.31008        -0.46673
C         36.68775        60.65404        -0.07346
C         37.90476        62.78445        -0.82787
C         36.59492        63.44802        -0.81932
C         37.82441        65.57190        -1.52316
C         36.54971        64.81488        -1.37879
C         37.81583        67.00627        -1.54856
C         36.58233        67.76256        -1.32026
C         37.84262        69.89523        -1.54129
C         36.60726        69.16194        -1.21237
C         38.01437        71.28028        -1.02752
C         36.76688        72.05323        -0.69613
C         38.05556        74.15258        -0.98148
C         36.81690        73.53364        -0.77389
C         40.17051        40.23954         1.32608
C         40.25868        41.55104         1.78793
C         39.09429        42.29167         2.18267
C         40.37881        44.35742         1.94881
C         39.10717        43.67393         2.23275
C         40.47162        45.73077         1.60208
C         39.28406        46.48528         1.26499
C         40.40676        48.58508         1.13043
C         39.15572        47.85174         1.39550
C         40.47266        50.07478         1.37675
C         39.11362        50.73960         1.13965
C         40.36904        52.80111         0.23098
C         39.09747        52.14449         0.60797
C         40.35544        54.14625        -0.08227
C         39.10841        54.89537        -0.06766
C         40.42636        57.02532        -0.10697
C         39.12233        56.28072        -0.15337
C         40.34520        58.39010        -0.74013
C         39.12475        59.12387        -0.63017
C         40.21523        61.17436        -1.58184
C         39.07561        60.49672        -0.93977
C         40.26803        62.66095        -1.68962
C         38.92901        63.34969        -1.80203
C         40.26359        65.52162        -1.82697
C         39.01112        64.85621        -1.67970
C         40.28301        66.94568        -1.79577
C         39.05538        67.66361        -1.71828
C         40.40511        69.82182        -1.70677
C         39.10909        69.12664        -1.84356
C         40.43304        71.26958        -1.58393
C         39.26022        72.00235        -1.33549
C         40.49193        74.10952        -1.41001
C         39.27236        73.43205        -1.22579
C         42.30886        36.28812        -0.89804
C         42.37103        37.41603         0.04376
C         41.21198        38.26337         0.28018
C         42.62910        40.10612         1.12985
C         41.32514        39.49404         0.92714
C         42.69332        41.44301         1.62708
C         41.54698        42.20211         1.88991
C         42.87595        44.32804         2.15332
C         41.61352        43.64057         2.06888
C         42.94252        45.74223         1.89568
C         41.72099        46.38953         1.56658
C         42.95834        48.56603         1.10041
C         41.68697        47.80605         1.14972
C         42.90654        49.97087         0.62748
C         41.62024        50.71106         0.60358
C         42.80371        52.69496        -0.28667
C         41.59870        52.03089         0.20332
C         42.79780        54.03241        -0.58129
C         41.59641        54.83720        -0.41137
C         42.90931        56.95291        -0.70171
C         41.61287        56.20464        -0.55362
C         42.74558        58.31271        -1.33551
C         41.53850        58.99390        -1.21579
C         42.78468        61.13807        -1.73185
C         41.49054        60.38858        -1.71187
C         42.74459        62.62032        -1.89859
C         41.43538        63.33401        -1.94058
C         42.68302        65.48590        -2.28153
C         41.47494        64.78940        -2.04337
C         42.71255        66.89743        -2.16030
C         41.53771        67.63588        -1.89141
C         42.86558        69.77746        -1.64924
C         41.57002        69.07957        -1.76219
C         42.89905        71.24269        -1.75826
C         41.68100        71.96449        -1.67001
C         42.94332        74.06433        -1.74432
C         41.70286        73.40053        -1.61643
C         44.34641        34.21405        -3.20435
C         43.27428        34.64357        -2.43996
C         44.78890        36.21280        -1.24917
C         43.41444        35.69809        -1.47653
C         44.95083        37.47260        -0.42879
C         43.77526        38.07778         0.27563
C         45.07370        40.18648         0.72542
C         43.81154        39.48060         0.69203
C         45.21311        41.36901         1.41894
C         44.00326        41.99494         1.99066
C         45.44779        43.98145         2.46910
C         44.06290        43.45898         2.40267
C         45.46817        46.11616         2.06843
C         44.18469        46.53207         1.68750
C         45.37348        48.38198         0.54171
C         44.19093        47.76605         0.97480
C         45.30475        49.59021        -0.37460
C         44.02073        50.42731        -0.25570
C         45.31032        52.54731        -0.81982
C         44.00461        51.87248        -0.61973
C         45.28906        53.90593        -0.99527
C         43.98922        54.62707        -1.28923
C         45.20632        56.76867        -1.60480
C         44.06654        56.13494        -1.22254
C         45.17106        58.13478        -2.16633
C         43.89696        58.93294        -2.03833
C         45.17764        61.08054        -2.41732
C         44.00043        60.40433        -2.12685
C         45.22714        62.52084        -2.49771
C         43.93723        63.24092        -2.54232
C         45.23046        65.40448        -2.72995
C         43.91420        64.75100        -2.70850
C         45.23867        66.86524        -2.81379
C         43.96458        67.62088        -2.50678
C         45.32480        69.78166        -2.40752
C         44.13482        69.02212        -2.02373
C         45.33862        71.17018        -2.22726
C         44.12733        71.90530        -1.93322
C         45.37215        74.03161        -2.11172
C         44.14704        73.34941        -1.93375
C         45.61352        34.82778        -3.13014
C         47.08699        36.56458        -2.18913
C         45.85770        35.87792        -2.22753
C         47.26167        37.78819        -1.48818
C         46.06892        38.37408        -0.83165
C         47.51751        40.30007        -0.04794
C         46.18771        39.70468        -0.12435
C         47.76462        41.43046         0.84880
C         46.55042        42.00693         1.56579
C         47.89283        44.21500         2.04709
C         46.58268        43.42763         1.98017
C         47.82564        45.60435         1.33939
C         46.65197        46.52161         1.42634
C         47.85218        48.35158         0.20756
C         46.61984        47.71287         0.66115
C         47.80009        49.69552        -0.21490
C         46.56884        50.42993        -0.33410
C         47.80786        52.52506        -0.80202
C         46.55364        51.79166        -0.65231
C         47.79277        53.89255        -1.10716
C         46.55393        54.65943        -1.03848
C         47.74331        56.83306        -1.83095
C         46.52402        56.12777        -1.43127
C         47.75240        58.18039        -2.21844
C         46.45241        58.83693        -2.52978
C         47.71561        61.09550        -2.85210
C         46.41803        60.33350        -2.75526
C         47.70586        62.55512        -2.61842
C         46.44381        63.23448        -2.61929
C         47.69321        65.40199        -2.62890
C         46.43354        64.69164        -2.67033
C         47.68801        66.85259        -2.71854
C         46.52318        67.57961        -2.77111
C         47.79770        69.76238        -2.74561
C         46.49621        69.07110        -3.07024
C         47.78751        71.18888        -2.58708
C         46.56469        71.90125        -2.40967
C         47.81801        74.01925        -2.40549
C         46.58315        73.32821        -2.31751
C         48.41821        38.56547        -1.56402
C         49.77707        40.54830        -0.90804
C         48.55701        39.80589        -0.85277
C         50.04046        41.73897        -0.21145
C         48.99290        42.25677         0.69783
C         50.28560        44.20055         1.40963
C         49.04595        43.47263         1.36888
C         50.40781        45.57344         1.12173
C         49.10454        46.23689         0.82124
C         50.34200        48.28281         0.22247
C         49.11251        47.66532         0.42105
C         50.34493        49.64264        -0.35374
C         49.05090        50.38754        -0.56306
C         50.26661        52.62058        -0.56946
C         49.05988        51.86159        -0.65423
C         50.26715        53.98900        -0.83197
C         49.04289        54.61373        -1.34544
C         50.20324        56.93787        -1.40348
C         49.00706        56.09520        -1.68933
C         50.20177        58.30286        -1.98822
C         48.97555        58.90931        -2.35710
C         50.29846        61.12781        -2.57815
C         49.02094        60.33487        -2.77693
C         50.18526        62.56593        -2.25574
C         48.92546        63.25056        -2.44161
C         50.14692        65.37371        -2.18965
C         48.90586        64.69223        -2.44140
C         50.25006        66.81808        -2.49294
C         48.98189        67.56750        -2.82889
C         50.25686        69.69321        -2.63477
C         49.00325        69.04078        -2.70896
C         50.25124        71.15345        -2.83065
C         49.00606        71.90045        -2.63222
C         50.28832        74.01919        -2.45718
C         49.03471        73.32529        -2.53860
C         51.27041        42.38937        -0.57405
C         52.81173        44.38766        -0.07379
C         51.91499        43.37682         0.19988
C         52.98256        45.49027         0.98064
C         51.64442        46.24378         0.91877
C         52.83314        48.30712         0.24281
C         51.62834        47.61993         0.46935
C         52.84539        49.70545        -0.23547
C         51.56824        50.45993        -0.11755
C         52.84638        52.65535        -0.41431
C         51.54569        51.94991        -0.18690
C         52.80243        54.14118        -0.45479
C         51.46658        54.81337        -0.59621
C         52.75657        56.90500        -1.35372
C         51.47310        56.27749        -0.94612
C         52.60388        58.10171        -2.04382
C         51.44580        58.93252        -2.10160
C         52.72926        61.18393        -1.66230
C         51.61204        60.40968        -2.32988
C         52.54206        62.53897        -1.38062
C         51.32228        63.24693        -1.77109
C         52.34761        65.48554        -1.08819
C         51.26666        64.68984        -1.73531
C         52.49109        66.93992        -1.40600
C         51.43203        67.58969        -2.06310
C         52.70095        69.69408        -2.07537
C         51.47395        68.99659        -2.30453
C         52.80586        71.12681        -2.48248
C         51.55329        71.91024        -2.76226
C         52.71310        74.03540        -2.10680
C         51.51160        73.35804        -2.44077
C         54.18600        46.30862         0.63995
C         55.34026        48.41930         0.23856
C         54.14299        47.67211         0.35613
C         55.31710        49.91248         0.39870
C         54.10314        50.50430        -0.28228
C         55.32316        52.69583        -0.72746
C         54.02853        51.98723        -0.38493
C         55.26442        54.16350        -0.35140
C         54.03620        54.91301        -0.71661
C         55.30185        57.03650        -0.95992
C         54.04183        56.25982        -1.06144
C         55.36852        58.41507        -1.13799
C         54.33343        59.26281        -1.70049
C         54.92839        61.15174        -0.25655
C         53.96382        60.51818        -1.25564
C         54.88551        62.66699        -0.27560
C         53.47362        63.21974        -0.34868
C         54.65901        65.53953         0.07989
C         53.43868        64.75259        -0.36699
C         54.65617        67.05373        -0.14424
C         53.62492        67.68472        -1.00054
C         55.02893        69.76424        -1.13508
C         53.77890        69.04740        -1.41622
C         55.20304        71.16655        -1.58079
C         54.03239        71.91050        -2.14556
C         55.02048        74.08343        -1.34333
C         53.93433        73.37892        -1.89885
C         56.58586        50.66242         0.08180
C         57.79444        52.77326        -0.17592
C         56.58444        52.00700        -0.22232
C         57.81888        54.18182        -0.17420
C         56.52483        54.91692        -0.18111
C         57.69620        57.03644        -0.22005
C         56.51739        56.37107        -0.45867
C         57.80730        58.49001        -0.43398
C         56.57664        59.20537        -0.86101
C         57.42129        61.34838         0.24214
C         56.34541        60.63750        -0.47892
C         57.27127        62.74023         0.42942
C         55.99940        63.40499         0.11554
C         57.13094        65.57365         0.55361
C         55.96073        64.85188         0.26514
C         57.14498        67.05870         0.57575
C         55.92016        67.81751         0.11873
C         57.27848        69.89353        -0.06326
C         56.07844        69.17326        -0.44445
C         57.32219        71.29942        -0.16221
C         56.32919        71.98618        -0.99466
C         57.17016        74.15586        -0.14998
C         56.18770        73.45498        -0.85086
C         58.98081        54.92564         0.06259
C         59.92275        57.06850         0.85450
C         58.90901        56.35002         0.24208
C         59.68424        58.48077         1.33348
C         58.81811        59.24511         0.35727
C         59.66841        61.39386         1.20219
C         58.59431        60.68163         0.62845
C         59.60766        62.79320         1.21276
C         58.41390        63.47385         0.84704
C         59.55256        65.65247         1.15091
C         58.37479        64.91506         0.83124
C         59.57486        67.08350         0.97703
C         58.44306        67.77109         0.57452
C         59.55206        69.96888         0.85190
C         58.42925        69.21103         0.45313
C         59.49275        71.38222         0.95645
C         58.36054        72.05679         0.42346
C         59.31144        74.20670         1.09708
C         58.29496        73.50008         0.44400
C         60.89676        59.29807         1.70520
C         61.90886        61.45858         2.29099
C         60.85258        60.67446         1.70409
C         61.90909        62.84680         2.24948
C         60.90882        63.53455         1.34891
C         61.83252        65.72196         2.12008
C         60.73897        65.00277         1.59662
C         61.87864        67.14025         2.00670
C         60.84543        67.79236         1.19602
C         61.85369        70.05297         1.91657
C         60.82648        69.31774         1.16433
C         61.74563        71.47099         2.03024
C         60.57561        72.12523         1.52649
C         61.42727        74.24855         2.38022
C         60.44163        73.54258         1.65365
C         62.90247        63.62578         2.88511
C         63.96325        65.80717         3.35559
C         62.92295        65.03365         2.78449
C         63.97521        67.20934         3.27322
C         62.91871        67.89232         2.57123
C         63.96080        70.06457         3.15644
C         62.91120        69.33679         2.52531
C         63.95907        71.49544         3.07396
C         62.81630        72.22731         2.61359
C         63.42921        74.44706         3.73361
C         62.60562        73.64470         2.85962
C         65.01951        67.98506         3.86580
C         66.17715        70.09757         4.49654
C         65.03215        69.36782         3.80999
C         66.11336        71.60435         4.35455
C         65.15448        72.14827         3.48117
C         65.62824        74.57635         5.02739
C         64.77676        74.19797         3.94987
C         66.95451        72.43729         5.10803
C         66.71692        73.80167         5.41541
O         52.26352        65.22946         0.37466
O         32.53265        66.16225        -1.74929
O         61.36330        68.52528         0.03985
O         47.49517        41.14937         2.28836
O         44.34370        67.41514        -3.90288
O         40.98259        48.09736        -0.12936
O         38.17711        45.76417         0.84831
O         45.64490        39.58487        -1.52390
O         29.08608        69.45068         2.19603
O         33.02787        54.72191        -0.58700
O         53.79830        71.44952        -3.52017
O         59.06203        58.93295        -1.04876
O         48.22139        45.44384        -0.06362
O         52.05673        54.62186         0.73391
O         65.40653        73.41496         2.95101
O         56.26238        67.73703         1.54224
O         53.66700        58.65369        -2.76371
O         46.64567        55.71359         0.00653
O         45.33353        36.19185         0.12339
O         45.57255        45.20700         3.11984
O         37.60712        71.45179         0.36946
O         36.55866        50.86635        -0.66233
O         56.39915        71.45707        -2.37228
O         43.58771        50.83578        -1.59606
O         43.25382        49.66510         2.03809
O         40.64276        60.55974        -2.88130
O         53.62201        49.85058        -1.49684
O         51.26491        60.86797        -3.66627
O         44.21279        58.19467        -3.27637
O         43.18129        37.18965         1.24800
O         50.62426        57.01261         0.00806
O         35.62296        65.01653        -2.49747
O         38.40750        62.38715         0.47126
O         32.54382        72.79832         1.63041
O         33.22314        71.93346        -1.71678
O         35.11697        53.35929        -1.06080
O         43.64941        63.84246        -3.83942
O         50.97983        71.59194        -4.05718
O         43.97048        42.39801         3.41591
O         49.78881        49.74873        -1.69580
O         51.39095        43.38182         1.54077
O         51.48407        51.24981         1.11401
O         49.85486        67.07538        -3.89080
O         34.06739        59.06184         2.40576
O         56.72958        60.29373        -1.84222
O         27.43890        71.84460        -0.20727
O         55.70652        54.50231         0.99933
O         38.98314        51.87105         2.09552
O         46.32262        59.39802        -3.86790
O         29.42693        67.63021        -1.15399
O         49.20929        55.11214        -2.76692
O         38.27760        69.70550        -2.92103
O         54.22295        66.46329         1.11967
O         30.32628        71.67382         2.21014
O         48.43513        60.68925        -4.06584
O         43.74554        69.19855        -0.61839
O         24.47356        72.11049         1.02719
O         43.00877        62.03886        -0.57654
O         28.23163        65.19788        -0.70827
O         31.24777        65.69216         1.48272
O         43.73969        54.37679        -2.72029
H         43.54374        53.42141        -2.83340
O         29.44880        56.58941         1.86011
H         29.32543        56.48699         0.89426
O         54.57335        60.71612         1.08351
H         53.81259        61.27487         1.37724
O         26.25119        74.29985         0.02069
H         26.45523        73.67988        -0.71407
O         58.87909        58.37014         2.56062
H         59.38998        57.84614         3.21272
O         43.33266        57.26721         0.68376
H         42.50972        57.50275         1.18644
O         33.43755        63.36236         2.09137
H         32.75039        62.98643         2.68217
O         66.23822        69.71818         5.88009
H         65.40275        69.98886         6.31233
O         52.86966        62.82196         0.93136
H         52.27862        63.56762         1.20166
O         46.32012        69.19744        -4.51768
H         45.55525        68.62312        -4.76405
O         45.30794        48.99324        -1.70304
H         44.82859        49.61521        -2.30015
O         35.86959        57.01371         2.31004
H         35.31367        57.70886         2.74784
O         61.52625        63.46176         0.00697
H         60.90442        63.87323        -0.63054
O         53.26262        44.97173         2.29346
H         52.67287        44.19637         2.44656
O         38.39893        63.02770        -3.11781
H         39.03222        63.33944        -3.79791
O         40.77180        50.20586         2.78559
H         40.44009        51.09096         3.06623
O         55.07517        50.15774         1.83518
H         55.85176        49.82781         2.33438
O         48.24650        44.45689         3.42015
H         48.14316        43.62022         3.91969
O         40.67752        57.29906         1.34137
H         40.45406        56.48290         1.83970
O         55.40859        52.67928        -2.18344
H         55.30647        51.75096        -2.48484
H         24.60697        75.11489         4.43750
H         26.41085        75.27947         2.80447
H         28.36783        75.48530         1.07869
H         30.72267        75.42670         0.50800
H         33.25288        75.42337        -0.02931
H         35.66713        75.35928        -0.55100
H         38.09980        75.25201        -0.98891
H         40.51628        75.20767        -1.35545
H         42.97231        75.16343        -1.71128
H         45.38609        75.13106        -2.07801
H         47.82740        75.11576        -2.32083
H         50.26741        75.10552        -2.28510
H         52.65925        75.11653        -1.90778
H         54.90888        75.16761        -1.18894
H         57.08240        75.24817        -0.05062
H         59.25027        75.30254         1.17089
H         61.27559        75.32255         2.56515
H         62.93571        75.26218         4.28468
H         65.38582        75.47749         5.61007
H         22.85719        69.47784         3.48143
H         22.30603        71.47728         4.84047
H         22.79513        73.81772         5.49987
H         24.81130        65.22243         2.14933
H         23.71776        67.38681         2.59707
H         27.27631        60.93923         1.76903
H         26.03787        63.04245         1.83581
H         30.85561        57.24023         3.20417
H         28.53615        58.84615         1.95486
H         32.11267        52.36914         1.64308
H         30.91188        54.57059         1.91887
H         34.53410        48.24849         2.29811
H         33.28795        50.31472         1.80553
H         37.32598        43.94077         3.51550
H         35.67204        46.34054         2.98580
H         39.18194        39.76486         1.24095
H         38.15265        41.74796         2.34749
H         41.30892        35.93823        -1.19871
H         40.22694        37.92666        -0.07657
H         44.19482        33.40283        -3.93028
H         42.28357        34.18766        -2.57880
H         46.41176        34.50988        -3.81579
H         47.91298        36.20183        -2.81972
H         49.28254        38.19272        -2.13312
H         50.56435        40.16355        -1.57563
H         51.77506        42.01564        -1.47778
H         53.10985        44.59568        -1.10978
H         55.16116        45.81026         0.74942
H         56.29850        47.88659         0.34282
H         57.53730        50.19213         0.38330
H         58.73920        52.23388        -0.00201
H         59.94037        54.41078         0.22103
H         60.82371        56.53728         1.20087
H         61.77617        58.78530         2.12733
H         62.72263        60.93206         2.81396
H         63.67922        63.12053         3.47953
H         64.78793        65.29355         3.87221
H         65.82800        67.46326         4.39896
H         67.14269        69.74351         4.04043
H         67.74284        71.94177         5.69561
H         67.36704        74.22637         6.19635
