         320
 CSIRO Nanostructure Databank - Neutral Graphene Oxide Data Set
C         30.44959        31.63441        -0.65211
C         30.47066        32.85713        -0.82029
C         30.86088        36.05620        -1.40560
C         30.72165        37.37397        -1.48008
C         30.88253        40.59474        -1.46209
C         30.67696        41.73487        -1.88016
C         32.66584        28.83007        -0.23879
C         31.59204        29.41015        -0.06068
C         32.78303        31.57552         0.09813
C         31.39016        30.85948         0.24509
C         32.86968        32.95526        -0.53198
C         31.52558        33.76753        -0.28150
C         32.81654        35.97467        -0.14458
C         31.63702        35.16848        -0.78921
C         33.08702        37.29338        -0.91656
C         31.79226        38.15217        -1.13188
C         33.19091        40.26573        -1.15620
C         31.82190        39.62620        -0.77562
C         33.38664        41.66208        -0.59013
C         30.76308        43.09261        -2.31248
C         33.04668        44.15366        -1.54445
C         31.96579        43.79441        -2.02044
C         35.57720        27.22390        -0.55070
C         35.30336        28.66006        -0.67977
C         34.00865        29.35477        -0.45280
C         35.27916        31.56555        -0.00883
C         34.04938        30.75083         0.29748
C         35.28071        32.96487         0.51171
C         34.06358        33.75972        -0.01323
C         35.24213        35.83096         0.71838
C         34.06281        35.11595         0.04533
C         35.31202        37.35323         0.43455
C         34.19615        38.07390        -0.24149
C         35.72399        40.14772        -0.70817
C         34.42384        39.43076        -0.83499
C         35.84472        41.65462        -1.06683
C         34.50191        42.35491        -0.98401
C         35.24603        44.64548        -0.17102
C         34.50785        43.85877        -1.26767
C         35.83993        45.95800        -0.65931
C         37.80008        27.27150         0.51769
C         36.53404        26.75643         0.08360
C         37.70099        28.78457         0.46574
C         36.51934        29.46304        -0.18631
C         37.90580        31.67024        -0.45267
C         36.50376        30.93806        -0.65825
C         37.80066        33.08895         0.06531
C         36.59715        33.67871         0.31639
C         37.78918        35.79210         1.02168
C         36.56235        35.18320         0.26895
C         37.94266        37.24751         0.53858
C         36.64681        38.07569         0.71483
C         37.77694        40.32885         0.86941
C         36.93064        39.45376        -0.06990
C         38.10296        41.69312         0.18455
C         36.76187        42.38376        -0.05820
C         37.69230        44.53451         1.13087
C         36.53185        43.81068         0.35426
C         37.83269        46.02080         0.82179
C         36.77591        46.44812         0.05366
C         40.12815        24.48147         1.28825
C         39.13729        25.20853         1.08704
C         40.25171        27.36738         1.22012
C         38.92303        26.61438         0.90552
C         40.20852        28.71609         0.56434
C         38.98519        29.55431         0.82788
C         40.25809        31.60415         0.25711
C         39.06892        30.94883         0.21916
C         40.37774        33.09297        -0.09115
C         39.08097        33.82491         0.21792
C         40.37675        35.80415         1.22229
C         39.11376        35.09877         0.69882
C         40.45423        37.37196         0.86287
C         39.08571        37.98008         1.30632
C         40.32906        40.29037         1.41900
C         39.04406        39.54102         1.28585
C         40.34598        41.76803         1.17738
C         39.13239        42.47274         0.98306
C         40.27480        44.60177         1.37270
C         39.07685        43.86739         1.09623
C         40.27095        46.07652         1.41263
C         38.86552        46.77162         1.59963
C         40.11519        48.85820         0.96032
C         39.12160        48.16126         1.15764
C         42.77915        24.49196         1.25167
C         41.47040        24.96154         1.74284
C         42.77880        27.23534         0.72692
C         41.44537        26.52045         0.74216
C         42.72819        28.60658         0.13394
C         41.41552        29.40160         0.00723
C         42.75913        31.55149         0.08462
C         41.53339        30.83811         0.63953
C         42.80626        32.90621         0.03828
C         41.62465        33.63831         0.68062
C         42.80851        35.85168         1.32174
C         41.71327        35.15651         0.85967
C         42.62406        37.18100         1.95543
C         41.59444        38.04177         1.61222
C         42.70000        40.23301         0.65963
C         41.67466        39.58775         1.67634
C         42.78266        41.75765         0.83899
C         41.54721        42.48282         1.27437
C         42.80388        44.61876         1.50636
C         41.51271        43.89201         1.41390
C         42.74632        46.10202         1.25874
C         41.42407        46.79907         1.27623
C         42.69703        48.77915         0.62601
C         41.47409        48.38515         1.41034
C         43.82014        25.17467         1.17266
C         45.29756        27.30795         0.94886
C         43.98123        26.57739         0.83820
C         45.31479        28.68870         0.25447
C         44.01402        29.34281        -0.04377
C         45.23772        31.55236         0.18038
C         44.00879        30.82776        -0.36702
C         45.25504        33.01762        -0.04355
C         44.04236        33.58072        -0.38019
C         45.41170        35.95592         0.54367
C         44.27870        35.38946         1.44659
C         45.42199        37.40660         0.35545
C         44.16157        38.18145         0.21447
C         45.28313        40.35080         0.06255
C         44.11703        39.60814         0.79612
C         45.37887        41.79919         0.52855
C         44.07653        42.50170         0.72674
C         45.33435        44.66271         0.98416
C         44.13564        43.83893         1.44199
C         45.22017        46.00949         0.70950
C         43.89991        46.65655         0.40133
C         43.74721        48.13461         0.53034
C         47.61446        27.26810         0.13165
C         46.56357        26.67921         0.44751
C         47.63080        28.48926        -0.74299
C         46.46304        29.31932        -0.15355
C         47.74594        31.59142        -0.32545
C         46.53409        30.79749         0.01260
C         47.74147        32.95656        -0.25765
C         46.56308        33.71672         0.35729
C         47.64080        35.91696        -0.59857
C         46.49902        35.22669         0.12689
C         47.77220        37.41584        -0.33060
C         46.55803        38.11434         0.02358
C         47.76843        40.36263        -0.21117
C         46.60532        39.59280         0.35682
C         47.85333        41.72756         0.28032
C         46.57689        42.45452         0.60455
C         47.96964        44.71007         0.56345
C         46.63180        43.91670         0.93779
C         47.61633        46.09793         0.28429
C         46.50037        46.60847         0.46387
C         50.25767        28.78183        -0.90651
C         48.88879        29.31111        -0.94884
C         50.27498        31.57009        -0.84076
C         48.94190        30.84723        -0.84460
C         50.23578        32.94423        -0.14823
C         48.98703        33.68772        -0.73081
C         50.17071        35.89440        -1.06130
C         48.99284        35.19398        -0.33160
C         50.25960        37.42055        -0.72261
C         48.91951        38.11288        -0.61543
C         50.25923        40.32493        -0.62605
C         48.89705        39.62084        -0.88100
C         50.11716        41.83990        -1.00423
C         49.13630        42.55127        -0.06535
C         50.14708        44.55871        -0.80771
C         49.05440        44.01996        -0.13064
C         51.34719        29.36214        -0.91475
C         52.72480        31.62020        -0.50133
C         51.61452        30.79541        -0.99224
C         52.68381        32.85442        -0.41316
C         51.56260        33.78717        -0.25197
C         52.53982        36.10293        -1.24856
C         51.52140        35.21831        -0.66123
C         52.49415        37.27578        -1.62296
C         51.26346        38.14508        -1.72382
C         52.39434        40.49778        -1.63871
C         51.42407        39.59881        -1.36514
C         52.53863        41.78867        -1.57137
C         51.52578        42.63612        -1.19418
C         51.21570        44.00309        -1.22380
O         36.59362        29.31556         1.27053
O         50.98259        31.43378        -2.10649
O         44.57964        34.76355         2.44043
O         48.95949        42.00955         1.25273
O         51.65663        34.84786         0.72239
O         41.54319        33.29260         2.04030
O         48.71150        30.15193        -2.11995
O         38.42261        31.90148        -1.85682
O         39.46179        40.05331         2.60421
O         47.65719        44.29281         1.89959
O         34.23822        38.04556         1.20009
O         43.41456        28.56853        -1.18377
O         36.03982        42.70876         1.16823
O         34.56425        29.23084        -1.77064
O         45.91934        31.07720         1.36789
O         43.00328        45.59474         2.59858
O         47.31173        35.92275        -2.07682
O         43.21544        42.40435        -0.45272
O         35.36991        39.39769        -1.94753
O         43.35899        37.76791        -0.62102
O         33.00630        32.83949        -1.96786
H         33.73014        32.20539        -2.16654
O         36.53216        35.44467        -1.15547
H         37.37824        35.14183        -1.54924
O         50.54578        40.18250         0.77188
H         51.31343        40.74455         1.00820
O         31.31970        33.85117         1.13539
H         31.13800        32.93735         1.48047
O         43.55918        37.52156         2.87271
H         44.11833        36.74718         3.10080
O         33.14077        40.43306        -2.59360
H         33.94995        40.01399        -2.97157
O         35.21792        44.09556        -2.47570
H         34.90282        43.47665        -3.16544
O         35.02322        35.67859         2.13562
H         34.20900        36.19825         2.33845
O         50.80502        37.47822         0.61358
H         50.76604        38.41593         0.93628
O         50.05334        35.73809        -2.46629
H         49.13151        35.94018        -2.74516
O         36.44711        41.73206        -2.37424
H         36.12009        40.95993        -2.88985
O         45.09216        40.35275        -1.35795
H         44.38153        41.00176        -1.56415
O         50.73153        38.09445        -3.04252
H         51.44318        38.31635        -3.67671
O         40.32452        35.65937         2.65311
H         39.38953        35.47870         2.91719
O         38.79469        41.54038        -1.06639
H         38.13341        41.47678        -1.80012
O         38.55128        46.77093         2.98973
H         38.06103        45.94260         3.20515
O         37.28559        44.45424         2.53280
H         36.87410        43.56121         2.64673
O         37.54967        35.62637         2.42542
H         37.16749        36.46714         2.77356
O         34.12361        30.34894         1.69973
H         34.34286        31.15778         2.22131
O         37.79094        39.26951        -1.20233
H         37.29790        38.74560        -1.87311
O         50.00823        32.66803         1.23245
H         49.80355        33.53007         1.67215
O         49.17945        35.27205         1.09156
H         49.77255        36.03923         1.29425
O         46.73132        33.57470         1.78533
H         46.51320        32.64013         2.02637
O         31.65098        39.72801         0.63722
H         31.02378        39.03746         0.93751
O         32.38384        42.22344         0.11333
H         32.66802        43.09726         0.45788
O         34.36153        44.82547         0.91137
H         34.82647        45.30571         1.62865
O         41.16695        26.13224        -0.58826
H         41.94265        25.65357        -0.94946
O         40.68282        37.54179        -0.54960
H         41.58116        37.94118        -0.69364
O         41.67428        30.71341         2.04698
H         41.66791        31.65734         2.39770
O         41.51047        25.18024         3.09173
H         40.80950        25.82372         3.34893
O         38.77928        30.60292        -2.41105
H         39.69507        30.40948        -2.04176
O         43.92924        34.76497        -1.06266
H         42.98275        34.97058        -1.21793
O         38.25110        37.03814        -0.84514
H         39.08383        37.51085        -1.09261
O         37.04073        40.66102         2.04919
H         37.66426        40.59327         2.80874
O         49.05727        33.51563        -2.14783
H         48.18459        33.73153        -2.54600
O         48.65909        39.67555        -2.32312
H         47.75556        39.33441        -2.49565
O         38.90527        29.74887         2.27763
H         37.95347        29.90590         2.48938
O         33.59475        36.96475        -2.21998
H         32.90718        36.45949        -2.70455
O         42.14376        39.99774        -0.64111
H         42.33230        40.77638        -1.21035
O         35.07801        32.90713         1.97189
H         35.13305        33.84145         2.30699
O         46.91716        39.56994         1.77559
H         46.80366        40.46989         2.15049
O         32.34605        36.31569         1.16631
H         31.94455        35.49665         1.55550
O         36.57967        38.30283         2.13095
H         35.69017        38.67033         2.33706
O         38.92067        37.65581         2.69363
H         39.50282        38.25790         3.20871
O         29.78812        43.67584        -3.00809
H         29.03969        43.06412        -3.15616
O         41.66160        48.68210         2.76037
H         41.66042        49.65196         2.88763
O         40.35156        27.53713         2.65554
H         39.88597        28.38509         2.88669
O         49.52882        41.98232        -2.29302
H         50.00531        41.41325        -2.93370
O         45.44182        27.58641         2.34692
H         46.33081        27.96756         2.50535
O         30.94797        31.06106         1.57990
H         30.18161        30.47545         1.75428
O         41.17733        29.66518        -1.41403
H         41.84900        29.14209        -1.91808
O         47.19224        28.07214        -2.03716
H         47.60611        28.65937        -2.70821
O         44.14465        30.98216        -1.80470
H         43.75966        30.17850        -2.22298
O         44.52459        39.70537         2.15949
H         43.75372        39.57965         2.76637
O         42.07145        40.01666         2.99517
H         41.33300        39.80746         3.60865
O         36.20052        30.99564        -2.06294
H         36.90470        30.52959        -2.56882
O         46.55845        34.72410        -2.39478
H         45.62062        34.95823        -2.15328
O         43.56653        46.27913        -0.94799
H         44.17506        46.74226        -1.56086
O         44.42536        43.45292         2.80788
H         44.31468        44.25572         3.36691
O         40.69513        33.28092        -1.49152
H         39.95932        32.87584        -2.01424
