         324
 CSIRO Nanostructure Databank - Neutral Graphene Oxide Data Set
C          1.40891         3.63028         1.65891
C          0.38557         4.32238         2.25761
C          1.52692         6.45585         1.87803
C          0.44518         5.73370         2.37297
C          1.59891         7.94788         2.13393
C          0.29732         8.67325         1.89082
C          1.49424        10.78448         1.54484
C          0.27351        10.00999         1.70077
C          1.48484        12.20996         1.47874
C          0.30144        12.96003         1.75230
C          1.46106        15.05248         1.25199
C          0.29197        14.32455         1.63391
C          1.41664        16.47602         1.05460
C          0.17845        17.16415         1.02812
C          1.29624        19.25397         0.48555
C          0.11542        18.50593         0.72649
C          1.19134        20.66368         0.09929
C         -0.02334        21.29732        -0.21493
C          1.06010        23.47998        -0.40751
C         -0.09027        22.67132        -0.46406
C          1.05347        24.92807        -0.55047
C         -0.12583        25.66543        -0.40660
C          1.00536        27.79199        -0.75787
C         -0.13668        27.07671        -0.41817
C          1.07365        29.21881        -0.73916
C          3.59213         3.63157         0.54780
C          2.55284         4.32856         1.13643
C          3.78504         6.47291         0.84619
C          2.60790         5.77141         1.26133
C          3.85286         7.91234         0.98654
C          2.74731         8.64183         1.44170
C          3.87706        10.80164         0.96572
C          2.70887        10.07894         1.34596
C          3.85889        12.19504         0.84519
C          2.67472        12.92512         1.13344
C          3.88837        15.10515         0.76636
C          2.67304        14.35952         1.03348
C          3.88112        16.51053         0.76873
C          2.62754        17.20570         0.84225
C          3.79250        19.37831         0.36293
C          2.54541        18.61161         0.62144
C          3.62071        20.84530         0.46181
C          2.37330        21.45449         0.11635
C          3.48965        23.66187        -0.03904
C          2.30508        22.85822        -0.12563
C          3.53631        24.99312        -0.59392
C          2.30530        25.61095        -0.82066
C          3.46256        27.79688        -1.49768
C          2.19138        27.03517        -1.21312
C          3.50530        29.22840        -1.13356
C          2.26098        29.89909        -0.89228
C          6.04435         3.58551         0.03961
C          4.74794         4.32722        -0.09297
C          6.09442         6.44488        -0.02098
C          4.88397         5.77820         0.29982
C          6.16972         7.88327         0.11423
C          5.06521         8.58352         0.60833
C          6.36001        10.74818         0.29368
C          5.13108        10.03991         0.79309
C          6.24454        12.17899        -0.12614
C          5.00766        12.93433         0.26415
C          6.32276        15.05498         0.19117
C          5.10131        14.39523         0.43689
C          6.39527        16.50498         0.23617
C          5.21034        17.25813         0.82578
C          6.47092        19.42044         0.24600
C          5.13974        18.70478         0.34372
C          6.66185        20.77768         0.48995
C          4.61224        21.70991         0.88382
C          6.54431        23.92496        -0.14246
C          4.56112        23.08157         0.62633
C          6.24036        25.01295        -0.92761
C          4.83747        25.58316        -1.07371
C          6.00379        27.81673        -1.71275
C          4.74259        27.01287        -1.56890
C          5.97822        29.18548        -1.11662
C          4.72609        29.85154        -0.93608
C          8.48056         3.54041        -0.23522
C          7.24207         4.24680        -0.19484
C          8.46566         6.33264        -0.76519
C          7.25938         5.69129        -0.36640
C          8.42787         7.81790        -1.11198
C          7.35810         8.58202        -0.33664
C          8.57229        10.69993        -0.96605
C          7.43187         9.95209        -0.30856
C          8.69593        12.15857        -0.55737
C          7.51362        12.91655        -0.26991
C          8.83621        14.99515         0.02578
C          7.51513        14.29679        -0.10870
C          8.79337        16.45310        -0.36285
C          7.56163        17.19205        -0.12225
C          8.78304        19.35537        -0.48402
C          7.60146        18.65620        -0.19277
C          8.84896        20.80227        -0.55667
C          7.71624        21.59604        -0.09060
C          8.79358        23.64696        -1.04232
C          7.67138        23.00449        -0.36846
C          8.70256        24.96583        -1.49779
C          7.33697        25.54607        -1.86966
C          8.57059        28.01335        -1.78966
C          7.30881        27.11055        -1.92102
C          8.41978        29.10893        -0.74358
C          7.14193        29.73574        -0.61433
C         10.91129         3.46907        -0.52218
C          9.67700         4.19016        -0.55455
C         10.90069         6.22830        -1.37769
C          9.64701         5.59558        -0.89552
C         11.00280         7.73932        -1.34214
C          9.79740         8.46304        -0.84215
C         11.14839        10.63413        -0.97446
C          9.86877         9.94088        -0.72897
C         11.15814        12.03979        -0.91693
C          9.93902        12.79684        -0.66162
C         11.20981        14.90164        -0.75888
C         10.01676        14.22831        -0.52309
C         11.23612        16.36253        -0.81689
C          9.97967        17.09466        -0.63295
C         11.26265        19.25492        -1.06614
C         10.02360        18.57025        -0.60861
C         11.17355        20.68117        -1.48733
C         10.00505        21.45987        -1.04500
C         11.23655        23.55965        -1.46344
C         10.04684        22.89774        -1.17382
C         11.26694        25.01591        -1.73944
C          9.92732        25.73031        -1.86964
C         11.07850        27.90924        -0.99814
C          9.90186        27.23860        -1.67839
C         10.83484        29.11644        -0.16760
C          9.51168        29.66747        -0.11655
C         13.36980         3.39243        -0.59881
C         12.14486         4.06101        -0.80552
C         13.49152         6.19607        -1.26672
C         12.17571         5.44026        -1.33875
C         13.47973         7.67650        -1.20388
C         12.32361         8.42000        -1.22879
C         13.57876        10.57306        -1.17963
C         12.35049         9.88344        -1.13880
C         13.62362        11.99315        -1.06863
C         12.40300        12.72936        -0.98851
C         13.66606        14.81240        -1.11190
C         12.43083        14.15385        -0.97596
C         13.67382        16.26701        -1.30442
C         12.40863        17.01275        -1.13771
C         13.67239        19.19947        -1.07760
C         12.43987        18.45619        -1.59254
C         13.74356        20.63574        -1.30754
C         12.54902        21.37753        -1.71203
C         13.80965        23.61429        -1.31014
C         12.53079        22.87266        -1.66253
C         13.66477        24.97806        -0.75759
C         12.51180        25.75052        -1.27801
C         13.31369        27.65114         0.27110
C         12.37752        27.17625        -0.76715
C         13.10381        28.97568         0.83835
C         11.83931        29.63985         0.61209
C         15.80160         3.34745        -0.23319
C         14.61122         4.07203        -0.55003
C         15.84147         6.21267        -0.40552
C         14.67789         5.49546        -0.73476
C         15.97667         7.61297        -0.64582
C         14.80960         8.32359        -1.21519
C         16.09763        10.51172        -0.91408
C         14.84850         9.83290        -1.29147
C         16.10978        11.92415        -0.88562
C         14.87577        12.68251        -1.01018
C         16.13380        14.82359        -0.81436
C         14.89517        14.09984        -1.03638
C         16.20773        16.20929        -0.81163
C         15.00002        16.98684        -1.16757
C         16.22172        19.16352        -0.68546
C         14.96440        18.43615        -0.80337
C         16.20231        20.55427        -0.52059
C         15.01645        21.31425        -1.02768
C         16.16830        23.52348        -0.30646
C         15.06073        22.82246        -1.04755
C         15.96055        24.91470         0.20222
C         14.65623        25.59672        -0.02449
C         15.43314        27.41282         1.53896
C         14.44887        26.90694         0.55791
C         15.27405        28.85938         2.02963
C         14.09423        29.59470         1.57205
C         18.20479         3.31249         0.36170
C         16.98276         4.00021         0.09094
C         18.30403         6.19923         0.32294
C         16.96403         5.47117         0.19035
C         18.38162         7.61759        -0.05876
C         17.18905         8.31473        -0.42535
C         18.48931        10.45383        -0.43043
C         17.26186         9.76576        -0.61298
C         18.53733        11.85394        -0.57099
C         17.34155        12.58685        -0.71300
C         18.59786        14.76069        -0.13916
C         17.32063        14.03734        -0.43990
C         18.60008        16.23582        -0.21264
C         17.44000        16.91842        -0.49881
C         18.69948        19.16513        -0.10905
C         17.47895        18.40890        -0.60313
C         18.54979        20.58510         0.30304
C         17.33463        21.24793        -0.02158
C         18.19278        23.31521         1.26423
C         17.16148        22.65680         0.41007
C         18.15555        24.79767         1.41771
C         16.94784        25.48796         1.15301
C         17.85032        27.48925         2.23580
C         16.77890        26.80433         1.61384
C         17.69656        28.87446         2.63691
C         16.48226        29.54718         2.46833
C         19.41285         3.97232         0.47851
C         20.75198         6.05570         0.26970
C         19.52568         5.38573         0.35223
C         20.80195         7.45313         0.17756
C         19.65009         8.24024        -0.00644
C         20.99464        10.39833        -0.34125
C         19.71314         9.75041         0.12152
C         21.06157        11.71371        -0.58766
C         19.84997        12.56273        -0.63897
C         21.11745        14.79036         0.01197
C         19.89791        14.05535        -0.40646
C         21.07153        16.08970         0.36146
C         19.82319        16.89176         0.33258
C         21.02740        19.19616         0.81379
C         19.83069        18.38746         0.50120
C         20.87573        20.52378         1.08863
C         19.62707        21.22561         0.94352
C         20.65506        23.46082         1.68569
C         19.44930        22.55065         1.68643
C         20.54711        24.78633         1.91747
C         19.26752        25.48245         1.93222
C         20.22121        27.59562         2.86089
C         19.13327        26.85774         2.33099
C         20.06461        28.92838         3.25481
C         18.83805        29.56848         3.13859
O          6.54274        27.62511        -3.05650
O         11.06681        19.07301         0.35827
O          4.65930        25.92460        -2.51207
O          4.42030        18.90137        -0.91423
O         10.69002        25.32741        -3.04688
O         19.46511        17.51988         1.63640
O          2.56338        27.42867        -2.58261
O         14.45994        16.70100        -2.50211
O         12.99850         5.60543        -2.52386
O         13.35191        23.51473        -2.68604
O         15.50042        22.11203        -2.22498
O         18.52072        18.90242        -1.53184
O         16.97813        22.72750         1.88491
O         19.92264        13.51718        -1.77003
O         14.03163        18.76539         0.28948
O         15.04337         9.01012        -2.49758
O          5.81266        21.31230         1.46447
O         11.70248        20.90899        -2.81144
O         13.00343        26.87126        -2.05471
O         17.41297         5.98129         1.48325
O         17.78623        14.26082         0.96898
O         14.89202        27.68394         2.86678
O         16.70182        24.63207        -1.07368
O          5.24534        12.47134        -1.14263
O          9.93494         9.07016         0.47219
O          6.18356        10.51904         1.73206
O          5.72300        23.76182         0.98998
O         10.87092        28.00552        -2.43809
O         10.75829         7.03645        -2.58748
O          8.10154         7.99975        -2.47251
O          7.11371        25.06965        -3.20831
H          6.32643        25.56119        -3.54907
O          1.86722         8.06973         3.57851
H          1.97507         9.02486         3.77476
O         12.41154        18.44802        -3.02565
H         13.15340        17.87592        -3.33518
O          4.44975         4.33760        -1.55309
H          5.17850         4.83137        -1.98998
O          8.64814        28.78198        -3.00451
H          8.87106        28.17671        -3.74223
O          8.34601        10.68462        -2.39832
H          8.20243         9.71736        -2.65559
O          9.06551        15.03267         1.49251
H          9.91584        15.49971         1.64422
O          5.51484        17.37387         2.25766
H          5.73454        16.47956         2.59536
O         19.26236        22.16285         3.07947
H         18.30558        21.95199         3.18262
O         19.67051         9.98787         1.57291
H         18.87113         9.54248         1.92635
H          1.36920         2.53565         1.56515
H         -0.48638         3.78708         2.65830
H         -0.37356         6.25602         2.88694
H         -0.64808         8.11777         1.97666
H         -0.69487        10.52119         1.60368
H         -0.61521        12.44358         2.06618
H         -0.63725        14.86339         1.85896
H         -0.75974        16.61992         1.19356
H         -0.86602        18.99428         0.66966
H         -0.95498        20.71706        -0.25890
H         -1.06585        23.11952        -0.69822
H         -1.06474        25.13836        -0.18775
H         -1.05991        27.61239        -0.15412
H          0.15519        29.77977        -0.51132
H          3.53549         2.53541         0.46461
H          2.27984        30.99137        -0.76600
H          6.03257         2.49127         0.15326
H          4.74433        30.89257        -0.57951
H          8.48600         2.45960        -0.03182
H          7.08525        30.68809        -0.06438
H         10.88924         2.41994        -0.18994
H          9.35596        30.54678         0.52844
H         13.34869         2.32622        -0.32663
H         11.64047        30.55786         1.18572
H         15.76747         2.24767        -0.22994
H         13.98331        30.65120         1.85776
H         18.18413         2.21362         0.40347
H         16.44036        30.63445         2.63257
H         20.33460         3.38737         0.61292
H         21.68826         5.48241         0.32939
H         21.78602         7.93864         0.22490
H         21.91442         9.79708        -0.37554
H         22.01476        12.17719        -0.88186
H         22.07603        14.25122         0.02437
H         21.99037        16.59377         0.69519
H         21.99000        18.69861         0.99640
H         21.74780        21.08000         1.46005
H         21.65682        23.01020         1.65005
H         21.46496        25.38255         2.02475
H         21.20658        27.12266         2.96595
H         20.92839        29.47616         3.65657
H         18.73100        30.61970         3.44150
