         344
 CSIRO Nanostructure Databank - Neutral Graphene Oxide Data Set
C          1.24695         3.63901         1.37916
C          0.03161         4.29852         1.28697
C          1.15809         6.36567         0.61281
C         -0.01762         5.64692         0.91190
C          1.12465         7.76374         0.21884
C         -0.09615         8.46370         0.13890
C          1.05128        10.50614        -0.51579
C         -0.13014         9.80714        -0.19236
C          0.96500        11.96782        -0.79625
C         -0.11457        12.74038        -0.16375
C          1.09369        14.85700        -0.47534
C         -0.08184        14.09541        -0.11295
C          1.06398        16.31653        -0.35727
C         -0.08765        17.04997        -0.31790
C          1.05798        19.20179        -0.59975
C         -0.07442        18.50221        -0.33314
C          1.11232        20.67814        -0.94472
C         -0.11715        21.46220        -0.54977
C          1.18044        23.42512         0.32083
C         -0.09261        22.70393        -0.05189
C          1.07712        24.96749         0.14767
C         -0.04711        25.60276         0.93424
C          1.22031        27.67938         1.10469
C          0.00591        26.92046         1.25752
C          1.26928        29.07188         1.36350
C          3.69848         3.66547         1.19475
C          2.45713         4.32612         1.09168
C          3.63221         6.40504         0.40409
C          2.41454         5.70496         0.69867
C          3.59994         7.77199        -0.00028
C          2.33482         8.44919        -0.10557
C          3.52117        10.46894        -0.97715
C          2.27523         9.81265        -0.52671
C          3.53761        11.97017        -1.25827
C          2.24292        12.74531        -1.14209
C          3.52847        14.91710        -0.99362
C          2.25440        14.19012        -0.84349
C          3.59552        16.33260        -0.60499
C          2.35655        17.08261        -0.19625
C          3.60401        19.19047        -0.57897
C          2.32418        18.43719        -0.90352
C          3.59281        20.62694        -0.45789
C          2.39655        21.33114        -0.47271
C          3.67289        23.42872         0.06024
C          2.39382        22.83999        -0.45045
C          3.67788        24.82046         0.64915
C          2.40623        25.62500         0.49126
C          3.74003        27.62077         1.23545
C          2.43842        26.95442         0.83794
C          3.71794        29.12794         1.11274
C          2.45528        29.78295         1.32274
C          6.14342         3.66792         1.04917
C          4.90613         4.34158         0.92574
C          6.10669         6.40287         0.24696
C          4.87837         5.72235         0.52342
C          6.09471         7.76336        -0.17062
C          4.83195         8.46812        -0.29364
C          6.04945        10.49739        -1.22409
C          4.80574         9.79612        -0.72629
C          6.03021        11.99625        -0.94707
C          4.83687        12.66828        -1.04007
C          6.02537        14.84902        -0.45169
C          4.82560        14.15346        -1.06097
C          6.05199        16.32978        -0.72726
C          4.79573        17.02530        -0.65261
C          6.06033        19.16843        -0.56197
C          4.79308        18.47958        -0.55476
C          6.06439        20.59911        -0.34763
C          4.86590        21.30483        -0.25933
C          6.12105        23.41334         0.29498
C          4.86088        22.73150         0.02812
C          6.17417        24.79130         0.34741
C          4.89642        25.57435         0.12063
C          6.14480        27.66977         0.57184
C          4.96351        26.99414         0.60991
C          6.15867        29.18029         0.48206
C          4.86958        29.82881         0.90060
C          8.59302         3.65370         0.94509
C          7.36276         4.33015         0.80878
C          8.57086         6.39056         0.15784
C          7.34840         5.71713         0.40955
C          8.54734         7.72092        -0.32806
C          7.32969         8.41361        -0.48225
C          8.51458        10.53699        -0.91167
C          7.33354         9.81955        -0.82959
C          8.51339        11.97698        -0.86440
C          7.30830        12.70627        -0.80487
C          8.50654        14.89334        -0.72747
C          7.32400        14.13867        -0.70809
C          8.52053        16.32153        -0.82169
C          7.25372        17.03227        -0.80698
C          8.49923        19.23870        -1.10251
C          7.24561        18.46966        -0.77474
C          8.52088        20.59793        -0.43682
C          7.34393        21.25347        -0.15926
C          8.64183        23.36598         0.25402
C          7.36910        22.60087         0.52076
C          8.63798        24.79084         0.47788
C          7.41497        25.50196         0.49600
C          8.59096        27.65059         0.77215
C          7.41702        26.95422         0.54297
C          8.59640        29.08790         1.02384
C          7.40027        29.79735         1.04351
C         11.05059         3.66250         0.97981
C          9.82457         4.32197         0.75518
C         11.05515         6.40274         0.28533
C          9.83036         5.71180         0.38270
C         11.00665         7.90477         0.10977
C          9.85360         8.29429        -0.84293
C         11.09979        10.55756        -1.00304
C          9.80634         9.81183        -1.05014
C         11.09458        12.02481        -0.80629
C          9.78724        12.67679        -0.60767
C         11.04358        14.92542        -0.77747
C          9.78683        14.19955        -0.53218
C         11.00016        16.31089        -0.93484
C          9.75323        17.02930        -0.89104
C         10.98805        19.18775        -0.87062
C          9.78075        18.46447        -0.91121
C         10.96556        20.62277        -0.70224
C          9.79446        21.28776        -0.35735
C         11.15344        23.34880         0.22160
C          9.81445        22.69291        -0.02330
C         11.09280        24.85276         0.26752
C          9.87960        25.49440         0.52426
C         11.10628        27.67504         0.74307
C          9.86300        26.89741         1.05638
C         11.08145        29.08587         0.98370
C          9.84487        29.74343         1.22740
C         13.49752         3.68586         1.13976
C         12.27845         4.34196         0.84928
C         13.54208         6.42080         0.29168
C         12.28261         5.73640         0.48030
C         13.55363         7.75973        -0.14712
C         12.33646         8.51279        -0.30542
C         13.61609        10.57920        -1.07276
C         12.35713         9.81537        -0.74106
C         13.55881        11.99946        -0.48126
C         12.27069        12.74813        -0.75386
C         13.50248        14.92587        -0.87146
C         12.28189        14.19490        -0.79462
C         13.52068        16.33348        -0.91010
C         12.25959        17.05209        -1.31689
C         13.47485        19.17195        -0.78929
C         12.25871        18.50593        -0.93816
C         13.46743        20.64630        -0.66089
C         12.20878        21.38678        -1.10288
C         13.45823        23.53411        -0.70224
C         12.29214        22.82230        -0.60700
C         13.51704        24.93787        -0.26747
C         12.30968        25.58351         0.15931
C         13.52030        27.74288         0.33596
C         12.30130        27.00753         0.40691
C         13.51487        29.15126         0.64286
C         12.29664        29.80191         0.94435
C         15.93092         3.72785         1.47231
C         14.73009         4.36685         1.07538
C         16.01928         6.38284         0.53844
C         14.77172         5.72694         0.60050
C         16.12279         7.70909        -0.09010
C         14.83122         8.42122        -0.47903
C         16.06318        10.57852        -0.43315
C         14.87883         9.88695        -0.60777
C         16.10456        12.04062        -0.60471
C         14.81850        12.72636        -0.91185
C         16.04142        14.96417        -0.83501
C         14.78804        14.21596        -1.02187
C         15.99277        16.32103        -0.67374
C         14.74054        17.05387        -0.79296
C         15.97763        19.23335        -0.84012
C         14.73763        18.48122        -0.79408
C         16.00061        20.61098        -0.86140
C         14.75670        21.40117        -0.72715
C         15.99471        23.61704        -1.18149
C         14.68244        22.82495        -1.29836
C         15.97984        25.05182        -0.76403
C         14.70952        25.68075        -0.32324
C         15.96384        27.80411         0.02533
C         14.73731        27.07498         0.01545
C         15.95865        29.22515         0.32676
C         14.72804        29.86369         0.63705
C         18.36770         3.77580         1.91047
C         17.15289         4.41204         1.47726
C         18.44636         6.48898         1.04046
C         17.20059         5.76942         1.02331
C         18.50806         7.86436         0.66784
C         17.31556         8.53383         0.17622
C         18.48125        10.74906         0.30624
C         17.28231         9.89538        -0.04493
C         18.57556        11.97094        -0.61406
C         17.27264        12.74324        -0.59331
C         18.55251        14.93900        -0.56626
C         17.32788        14.19236        -1.04607
C         18.51268        16.33590        -0.42279
C         17.21738        17.11219        -0.29466
C         18.49681        19.23807        -0.55290
C         17.27774        18.46481        -1.03256
C         18.50554        20.64005        -0.57891
C         17.28117        21.34979        -1.03700
C         18.61679        23.62072        -0.93903
C         17.29859        22.84534        -1.17170
C         18.45067        25.02431        -0.37620
C         17.25458        25.70670        -0.36624
C         18.42400        27.84865         0.01265
C         17.21878        27.13306        -0.10742
C         18.42968        29.35044        -0.11870
C         17.13876        29.96135         0.31100
C         19.55483         4.45309         1.90363
C         20.84938         6.53270         1.50811
C         19.62535         5.82391         1.48216
C         20.90491         7.86465         1.13534
C         19.74125         8.56171         0.72362
C         20.95002        10.67752         0.22997
C         19.78292         9.97324         0.36655
C         20.95441        12.09715         0.00985
C         19.81470        12.79178        -0.30342
C         20.96037        14.99782        -0.20161
C         19.78106        14.24518        -0.39496
C         20.93044        16.38139        -0.15903
C         19.70422        17.07060        -0.21948
C         20.77207        19.26071         0.30409
C         19.65240        18.53146        -0.14129
C         20.76591        20.64404         0.30805
C         19.64312        21.37164        -0.14785
C         20.70581        23.52254         0.40571
C         19.65384        22.82489        -0.14836
C         20.76061        24.93947         0.40930
C         19.66139        25.70262         0.04518
C         20.81613        27.87849         0.49068
C         19.66147        27.15498         0.16531
C         20.76373        29.28209         0.73830
C         19.62548        29.99739         0.52067
O         15.99805        24.67006        -2.20895
O         14.79026        13.32677        -2.24203
O          4.26624        14.68892        -2.27992
O         14.06657        21.20966         0.56435
O         15.64992         7.71672        -1.48201
O         10.46992        10.18837        -2.31619
O          1.27006        12.36989        -2.16357
O          3.48235        11.03054        -2.37141
O         17.41111        21.99471        -2.36687
O          9.78153        13.39069         0.69887
O         10.09669         7.65997        -2.11359
H         10.33633         8.37498        -2.75100
O         14.48210        22.65068        -2.72459
H         14.84116        23.45927        -3.16168
O          7.39616        22.31397         1.96885
H          8.29994        22.00163         2.18898
O         12.13933        21.38308        -2.54822
H         12.95582        21.82279        -2.89995
O         13.68351        10.72747        -2.50921
H         13.78669         9.83788        -2.90679
O         18.72788        11.50570        -1.98031
H         18.56288        12.28337        -2.56331
O         11.51337        22.92972         1.60634
H         12.32790        22.37838         1.55622
O          0.74104        25.27378        -1.23197
H          1.33850        24.73589        -1.80821
O          2.49388        17.37996         1.23009
H          2.59930        16.53119         1.70818
O          1.15805        20.72890        -2.41912
H          1.41022        21.65740        -2.64595
O         18.24164        11.27469         1.64865
H         18.23117        10.51634         2.26935
O          3.84685        24.65274         2.09495
H          3.06835        24.12270         2.39611
O         12.28673        17.03873        -2.79812
H         12.38021        16.10406        -3.08233
O          6.04283        10.36880        -2.68918
H          5.14333        10.65421        -2.99423
O          6.24475        29.43839        -0.98669
H          7.16432        29.23428        -1.26264
O         13.62829        11.83979         0.96434
H         13.13595        12.57397         1.38765
O          3.89384        27.35660         2.66872
H          3.95060        26.37060         2.76576
O         10.66386         8.48359         1.40285
H         11.35018         8.21532         2.04888
O          4.69613        25.65654        -1.33032
H          5.32397        26.32345        -1.68159
O         19.21424        23.82726        -2.24965
H         18.89491        23.08847        -2.82019
O         17.07433        17.45117         1.11583
H         17.09173        16.61948         1.63344
O         18.56780        29.62492        -1.58155
H         19.36250        29.13545        -1.88554
O          9.88736        26.73156         2.53562
H         10.59871        26.08716         2.74158
O          2.33433        18.21357        -2.33398
H          2.00087        19.04184        -2.75683
O          8.42530        19.49511        -2.55200
H          7.60439        20.00442        -2.72043
O          1.43449        23.20116         1.73692
H          1.43325        22.23259         1.89351
O         17.47943        14.08329        -2.51077
H         16.60082        13.76728        -2.84416
O         17.41386        18.21939        -2.44865
H         18.22929        17.69471        -2.59271
O          5.78730        14.71496         1.00380
H          6.60789        14.99523         1.46354
O          2.28763        23.24683        -1.88315
H          3.20110        23.41429        -2.20374
H          1.28827         2.58150         1.67625
H         -0.90307         3.76521         1.50962
H         -0.99935         6.13400         0.85072
H         -1.04401         7.95531         0.35592
H         -1.10040        10.31872        -0.23379
H         -0.96317        12.20886         0.28874
H         -0.93021        14.63134         0.33534
H         -1.07100        16.55915        -0.35888
H         -1.04025        19.01568        -0.21369
H         -1.09012        21.01288        -0.80255
H         -1.04575        23.22011         0.14291
H         -0.97834        25.03772         1.08618
H         -0.86717        27.41972         1.70527
H          0.32653        29.60279         1.56338
H          3.72681         2.60836         1.49699
H          2.44019        30.87838         1.42819
H          6.15161         2.60911         1.34698
H          4.83304        30.93006         0.86700
H          8.59508         2.59287         1.23625
H          7.40696        30.87447         1.27004
H         11.04838         2.60606         1.28602
H          9.84944        30.82363         1.43517
H         13.47744         2.63480         1.46337
H         12.29942        30.88285         1.14785
H         15.89320         2.68093         1.80831
H         14.72577        30.93892         0.86902
H         18.32405         2.72923         2.24532
H         17.11009        31.03709         0.54042
H         20.47943         3.95780         2.23457
H         21.76168         6.01665         1.84047
H         21.86856         8.39006         1.17965
H         21.92378        10.17940         0.34192
H         21.91785        12.61240         0.13066
H         21.92961        14.49174        -0.10610
H         21.87519        16.93098        -0.05567
H         21.66752        18.73587         0.66211
H         21.66668        21.16553         0.65415
H         21.54151        22.99320         0.88275
H         21.66929        25.41778         0.79811
H         21.77591        27.36310         0.62754
H         21.66588        29.78016         1.12305
H         19.59947        31.08179         0.70186
