         252
 CSIRO Nanostructure Databank - Neutral Graphene Oxide Data Set
C         30.42154        31.64506        -1.36228
C         30.44186        32.91028        -1.44769
C         30.58293        36.08381        -1.64213
C         30.34955        37.27833        -1.33301
C         30.52279        40.16637         0.23031
C         30.55466        41.30761         0.75528
C         32.66267        28.81670        -0.41056
C         31.60557        29.37802        -0.81335
C         32.68136        31.55758        -0.45244
C         31.39825        30.74742        -0.96875
C         32.77072        32.98210        -0.98627
C         31.59537        33.74372        -1.36765
C         32.91136        35.82979        -1.38343
C         31.65288        35.14601        -1.56218
C         33.08965        37.25401        -1.48564
C         31.23409        38.39905        -1.42112
C         32.78782        40.23160        -0.50695
C         31.45186        39.48513        -0.57678
C         32.85245        41.60740         0.10014
C         31.63884        42.21149         0.64556
C         32.86138        44.20693         0.82893
C         31.79905        43.56861         1.01758
C         35.33723        27.29297         0.37742
C         35.15110        28.62852        -0.06614
C         33.99384        29.33012        -0.36432
C         35.20236        31.47833        -0.53037
C         34.00079        30.78931        -0.54623
C         35.22528        32.93838        -0.48414
C         33.98510        33.64371        -0.79592
C         35.06815        35.74751        -0.22329
C         34.01907        35.07434        -0.89176
C         34.81838        37.07464         0.13015
C         33.98630        37.91666        -0.62807
C         35.43687        40.09041        -0.12581
C         34.11542        39.40231        -0.53848
C         35.39790        41.61628        -0.04703
C         34.08295        42.30821         0.09760
C         35.30866        44.48395         0.30179
C         34.14831        43.73576         0.44895
C         35.58295        45.86790         0.35781
C         37.73723        27.13395         0.43458
C         36.36311        26.65680         0.68664
C         37.74156        28.59255         0.15950
C         36.49542        29.24801        -0.28605
C         37.79359        31.47284        -0.46787
C         36.48705        30.73393        -0.58867
C         37.72953        32.99623        -0.36538
C         36.40614        33.64324        -0.28883
C         37.68838        35.84607         0.30312
C         36.40734        35.11441        -0.13842
C         37.74621        37.22877         0.84131
C         36.63307        38.12348         0.89204
C         38.01247        40.11494         0.44206
C         36.63535        39.44691         0.47793
C         37.93881        41.65826         0.55114
C         36.57949        42.36759         0.57778
C         37.86587        44.59728         0.27952
C         36.61427        43.76009        -0.10361
C         37.86433        46.02717        -0.36299
C         36.56976        46.62856         0.21873
C         40.24997        24.71631         1.98868
C         39.17672        25.26347         1.71074
C         40.24576        27.31019         0.96706
C         38.99278        26.46689         0.87445
C         40.22176        28.64560         0.70480
C         38.90173        29.42108         0.66980
C         40.17988        31.55923         0.11998
C         39.00414        30.80323         0.04005
C         40.16690        32.97880         0.02704
C         38.93740        33.71144         0.09423
C         40.24242        35.67260         0.90701
C         38.92538        35.04587         0.46753
C         40.21158        37.17351         1.04058
C         39.00769        37.84164         1.06226
C         40.23394        39.85685         1.73087
C         38.88695        39.27836         1.49871
C         40.29595        41.99688         1.19486
C         39.07167        42.44610         0.57625
C         40.37520        44.62053         0.36798
C         39.14119        43.82678        -0.07462
C         40.43566        46.05750        -0.06528
C         39.16987        46.74023        -0.17785
C         40.44695        48.75176        -0.74270
C         39.41283        48.08481        -0.54945
C         42.86148        24.61214         1.55918
C         41.60550        25.25688         1.95750
C         42.72214        27.23308         0.55219
C         41.54695        26.65785         1.31000
C         42.78048        28.71804         0.51972
C         41.50052        29.42370         0.76852
C         42.75316        31.55557         0.09318
C         41.47745        30.90910         0.47651
C         42.72086        33.00645        -0.25352
C         41.40602        33.74143        -0.23010
C         42.70954        35.91266         0.24895
C         41.36578        35.26882        -0.09535
C         42.73782        37.28376         0.66708
C         41.52636        37.84156         1.38822
C         42.72350        40.16582         1.59088
C         41.45403        39.35641         1.43463
C         42.67268        41.73841         1.80451
C         41.57640        42.43531         0.98593
C         42.93156        44.55154         0.67576
C         41.62477        43.88849         0.71223
C         42.99028        45.91053        -0.03098
C         41.67768        46.68200        -0.20372
C         42.88054        48.84525         0.11404
C         41.81302        48.13629        -0.75585
C         43.86365        25.15286         1.07650
C         45.23491        27.15449         0.11186
C         43.98730        26.41928         0.33845
C         45.19404        28.63689        -0.12282
C         43.94189        29.39677         0.21007
C         45.21776        31.59019        -0.33379
C         43.93503        30.85074         0.06807
C         45.19222        33.04891         0.13601
C         43.94672        33.81011        -0.10894
C         45.20129        35.99113        -0.17873
C         43.92205        35.19451         0.05248
C         45.21873        37.31230         0.64894
C         43.91459        38.03773         0.68808
C         45.18317        40.27260         0.69490
C         43.97872        39.47552         1.10318
C         45.17465        41.69332         0.76201
C         44.11555        42.41696         1.64190
C         45.34909        44.60029         1.27487
C         44.01403        43.90803         1.18178
C         45.27334        46.11594         0.99222
C         44.13360        46.75820         0.59778
C         43.86975        48.13208         0.41242
C         47.60012        27.33171        -0.03819
C         46.50546        26.65612         0.06992
C         47.83039        28.67083        -0.03317
C         46.52223        29.40006        -0.20757
C         47.80017        31.61126        -0.17281
C         46.47879        30.86074         0.23304
C         47.77222        33.05477         0.33903
C         46.47061        33.80193         0.36490
C         47.67039        35.98933         0.08625
C         46.51214        35.26740         0.16858
C         47.57585        37.44960        -0.06016
C         46.41047        38.13285         0.20782
C         47.44207        40.33553        -0.27264
C         46.33173        39.59186         0.20438
C         47.45468        41.74715        -0.22788
C         46.32341        42.41198         0.33062
C         47.69984        44.56383         0.31012
C         46.30463        43.92587         0.25604
C         47.65615        45.89245         0.76336
C         46.61348        46.57812         1.00065
C         50.40712        28.87143         0.37794
C         49.12357        29.40790        -0.23321
C         50.34971        31.64041         0.14267
C         49.05388        30.85155         0.38471
C         50.23935        33.07386        -0.24823
C         49.04144        33.83529         0.26317
C         50.17421        36.01230        -0.47996
C         49.05257        35.37970         0.34577
C         50.06898        37.48911        -0.74456
C         48.77772        38.20768        -0.48772
C         49.64014        40.37801        -1.63438
C         48.52430        39.60769        -0.98060
C         49.75763        41.83551        -1.29654
C         48.66774        42.47588        -0.64642
C         50.03733        44.41052        -0.58290
C         48.77080        43.87671        -0.27048
C         51.44019        29.56486         0.35833
C         52.68122        31.84899        -0.13551
C         51.58292        30.99027         0.22149
C         52.66315        33.07295        -0.35879
C         51.47783        33.88122        -0.63296
C         52.36150        36.21834        -1.26331
C         51.36600        35.35248        -0.68123
C         52.32200        37.37908        -1.68743
C         51.05741        38.14150        -1.71409
C         51.95512        40.49259        -2.42632
C         50.86864        39.56494        -2.11385
C         52.01606        41.68969        -2.10964
C         51.00306        42.53236        -1.56233
C         51.02441        43.87779        -1.15114
O         41.78339        26.43728         2.75178
O         36.54693        29.77019        -1.68615
O         33.57460        40.08136        -1.69835
O         42.99866        26.56078        -0.72229
O         45.64888        33.33668         1.51150
O         44.70305        42.33424         2.91246
O         32.28479        38.04845        -2.32061
O         35.40529        37.58216         1.27373
O         37.99513        32.31494        -1.63990
O         38.53752        26.28059        -0.48005
O         45.21334        36.23041        -1.53337
O         43.64234        39.55212         2.55942
O         50.59828        33.30756        -1.64804
O         40.09237        41.12439         2.26011
O         35.82156        40.95931        -1.26287
O         50.53830        38.49157        -3.00872
O         41.49993        30.40098         1.86906
O         49.88738        38.25069         0.49342
O         45.78716        29.06375        -1.41771
O         40.68695        44.55702         1.78809
O         37.28019        35.79800        -1.13327
O         48.57296        33.27014         1.54358
O         48.48474        39.94393        -2.40859
O         41.99580        33.31294        -1.50936
O         45.82466        44.27957        -1.06332
H         46.26777        43.71517        -1.73108
O         38.63437        29.71565         2.09882
H         39.48204        30.04513         2.48368
O         47.87471        31.72713        -1.59282
H         48.32767        30.93735        -1.97657
O         46.34518        30.79329         1.65644
H         46.20736        31.70911         2.00814
O         42.34937        48.08836        -2.06452
H         42.53900        49.00107        -2.36694
O         32.42936        31.69102         0.97011
H         31.60289        32.20510         1.09302
O         41.79680        37.45917         2.79324
H         42.53365        38.04741         3.10125
O         36.58375        43.53292        -1.51752
H         36.57963        44.40994        -1.97174
O         38.61303        39.87556        -0.84668
H         37.98648        40.19654        -1.53330
O         37.84491        44.73734         1.71287
H         38.76067        44.89790         2.04435
O         37.64508        45.92644        -1.77434
H         37.85176        46.79565        -2.18081
O         42.31569        41.92613         3.16835
H         43.18960        42.02616         3.64312
O         40.58800        35.09120         2.18904
H         41.07342        35.77506         2.71607
O         40.99926        35.81304        -1.37658
H         41.49220        35.31152        -2.06496
O         49.32494        29.49456        -1.64655
H         49.26969        28.59701        -2.03736
O         45.43081        36.87576         2.02371
H         45.34196        37.65977         2.60848
O         48.91458        30.62212         1.78596
H         48.85790        31.49473         2.23789
O         45.24889        31.67183        -1.76082
H         45.32854        30.75631        -2.11981
O         45.91755        44.50890         2.57295
H         45.58384        43.65727         3.00146
O         39.26979        43.64044        -1.48881
H         38.40056        43.31556        -1.83340
O         36.28359        42.53569         1.97663
H         36.84631        43.27945         2.31165
O         38.17235        39.30373         2.74935
H         38.46295        40.10572         3.23766
O         43.45678        45.61427        -1.36932
H         43.30720        46.41595        -1.92535
O         49.39607        35.71349         1.70960
H         48.85340        35.14115         2.29754
