         470
 CSIRO Nanostructure Databank - Neutral Graphene Oxide Data Set
C         37.49011        49.95066         1.00803
C         36.49098        50.80870         1.33737
C         37.49197        52.65078         0.08814
C         36.48974        52.17366         0.86960
C         40.07334        48.44229         1.25318
C         40.04110        49.69536         0.48734
C         38.66977        50.41101         0.26286
C         40.05198        52.55692        -0.37203
C         38.67600        51.83229        -0.20267
C         40.07651        54.02434        -0.54033
C         42.48652        48.62516         1.48391
C         41.25014        47.91944         1.67945
C         42.48983        49.93828         1.02534
C         41.26279        50.53736         0.51080
C         42.40455        52.72565         0.54673
C         41.24126        51.88151         0.16606
C         42.38137        54.21471         0.31676
C         41.16067        54.77961        -0.30421
C         44.91544        45.91638         0.63926
C         43.75386        46.50761         1.01553
C         45.06063        48.61091         1.61882
C         43.75696        47.85931         1.59290
C         44.97029        50.13999         1.73788
C         43.72698        50.71794         1.05766
C         44.91306        52.92436         1.10056
C         43.70187        52.05842         0.79493
C         44.90032        54.27449         0.40815
C         43.68212        54.92756         0.15263
C         44.87828        56.96816        -0.41799
C         43.69204        56.26510        -0.29531
C         47.43764        44.49182        -0.21329
C         47.33288        45.94648         0.00443
C         46.17607        46.61356         0.63942
C         47.53072        48.64625         1.16116
C         46.26876        47.95346         1.05378
C         47.53274        50.10916         1.69445
C         46.24963        50.83251         1.31207
C         47.42790        52.88927         0.60995
C         46.21519        52.15007         0.94674
C         47.38943        54.26071         0.27324
C         46.12301        54.95991         0.18062
C         47.36432        57.07631        -0.25328
C         46.11426        56.33537        -0.17994
C         47.37551        58.50110        -0.26818
C         49.90688        44.56827        -0.45442
C         48.62041        43.88764        -0.50063
C         49.92441        45.90138        -0.03484
C         48.67773        46.67020         0.14353
C         50.00312        48.30726         1.39491
C         48.69629        47.91050         0.93290
C         50.01562        50.43497         1.54785
C         48.75488        50.91423         1.25568
C         49.89373        52.90763         0.33899
C         48.68015        52.22560         0.69309
C         49.82527        54.25519        -0.09915
C         48.60160        54.94663        -0.06180
C         49.82421        57.11242        -0.34148
C         48.58833        56.38419        -0.25625
C         49.81427        58.53763        -0.25737
C         48.55466        59.20601        -0.22622
C         52.43318        41.85031        -1.31815
C         51.22406        42.55687        -1.20895
C         52.41573        44.41150        -0.08155
C         51.14581        43.84395        -0.67208
C         52.48141        45.91866        -0.11013
C         51.17921        46.67193         0.02888
C         52.43682        48.67153         1.11402
C         51.17953        47.91287         0.82261
C         52.45227        50.16487         1.00834
C         51.23924        50.94201         1.00160
C         52.37739        52.94630         0.10062
C         51.16723        52.25165         0.45482
C         52.33524        54.24842        -0.33845
C         51.03285        54.91873        -0.71944
C         52.24794        57.15017        -0.66804
C         51.06141        56.42492        -0.52023
C         52.27184        58.57051        -0.45789
C         51.05085        59.25705        -0.22097
C         52.23731        61.38772         0.00889
C         51.09000        60.66927         0.08297
C         54.99059        40.30575        -1.45104
C         54.93723        41.70761        -1.11238
C         53.69621        42.42088        -0.99781
C         54.90852        44.47556        -0.37567
C         53.71079        43.78706        -0.55279
C         54.93888        45.86855         0.10699
C         53.71345        46.54229         0.35106
C         54.95085        48.72369         0.39081
C         53.72229        47.94165         0.81593
C         54.92895        50.16427         0.79139
C         53.69504        50.84015         0.82051
C         54.88477        53.04713         0.34980
C         53.67337        52.16656         0.07222
C         54.86567        54.44824        -0.16978
C         53.57233        54.95365        -0.71423
C         54.79353        57.20048        -0.84294
C         53.52575        56.46661        -0.95424
C         54.74537        58.59024        -0.60894
C         53.51749        59.28432        -0.50073
C         54.81500        61.54587        -0.37186
C         53.49476        60.76440        -0.43028
C         54.92111        62.90417         0.19648
C         57.45735        40.31578        -1.40450
C         56.16707        39.63848        -1.59619
C         57.42000        41.68104        -0.85696
C         56.16559        42.37532        -0.82567
C         57.37256        44.43323        -0.25967
C         56.15414        43.77533        -0.52918
C         57.41502        45.94201        -0.26617
C         56.14613        46.54906         0.24942
C         57.48121        48.69843         0.49314
C         56.20260        47.95361         0.82743
C         57.47034        50.10398         0.35412
C         56.22315        50.86661         0.67284
C         57.35605        52.99454        -0.25972
C         56.20659        52.34956         0.45574
C         57.41932        54.51673        -0.13362
C         56.10886        55.16031        -0.53813
C         57.30043        57.17185        -1.49446
C         56.05095        56.47658        -0.92468
C         57.29094        58.61243        -0.96499
C         56.02328        59.32591        -0.47639
C         57.30362        61.46389        -0.42529
C         56.07843        60.78549        -0.39993
C         57.36576        62.88116        -0.11304
C         56.12851        63.50414         0.33453
C         59.78855        37.34594        -0.66133
C         58.76876        38.06478        -1.19782
C         59.89562        40.21138        -0.53829
C         58.78217        39.54079        -1.23561
C         59.83228        41.53575        -0.14714
C         58.58939        42.28333        -0.35001
C         59.62990        44.28096         0.67743
C         58.53579        43.67698        -0.03196
C         59.51413        45.67764         1.03113
C         58.58586        46.51879         0.48544
C         59.93812        48.65485         0.28958
C         58.69523        47.97459         0.48514
C         59.90362        50.06013        -0.06088
C         58.65720        50.77719         0.00136
C         59.86126        52.97063        -0.58590
C         58.61193        52.20535        -0.41210
C         59.87960        54.35194        -0.75298
C         58.65166        55.13570        -0.75803
C         59.92466        57.12620        -1.35550
C         58.64237        56.45464        -1.17031
C         60.09063        58.45958        -1.77634
C         58.27316        59.53844        -1.47367
C         59.72697        61.52974        -1.33274
C         58.46916        60.80216        -0.97144
C         59.76127        62.97473        -0.90022
C         58.55789        63.58893        -0.25745
C         59.74725        65.73998        -0.17158
C         58.63791        64.99448         0.05837
C         62.08770        35.73384         0.30018
C         62.10082        37.18005         0.20337
C         61.01589        37.95070        -0.20022
C         62.21933        40.08544         0.42533
C         61.19366        39.44180        -0.47810
C         62.22658        41.51850         0.68585
C         60.98679        42.19178         0.50446
C         62.65102        44.62980         1.20573
C         60.73850        43.50570         1.01095
C         62.59968        45.95318         0.79940
C         61.42715        46.76348         0.99940
C         62.37350        48.52845        -0.37522
C         61.20253        47.95677         0.31566
C         62.32831        50.01421        -0.71487
C         61.08729        50.74406        -0.42704
C         62.38521        52.92478        -0.92503
C         61.07677        52.17578        -0.76993
C         62.38300        54.38897        -0.82707
C         61.14858        55.05716        -0.87021
C         62.37463        57.20156        -0.92729
C         61.14589        56.47365        -0.99774
C         62.35519        58.64380        -0.97400
C         61.17344        59.28354        -1.39716
C         62.33204        61.54368        -1.16490
C         61.06416        60.78137        -1.50044
C         62.26528        62.99877        -0.80199
C         61.07731        63.65960        -0.72591
C         62.31384        65.93120        -0.45323
C         61.01160        65.14681        -0.63269
C         62.28149        67.29649         0.09403
C         64.54959        35.73317         0.18232
C         63.25051        35.04345         0.34121
C         64.58363        37.17645         0.52736
C         63.35416        37.84119         0.56594
C         65.02335        40.24930         0.95240
C         63.16710        39.22772         0.94169
C         64.81505        41.49330         0.45342
C         63.57062        42.21572         0.92107
C         65.00372        44.39454         0.40666
C         63.78490        43.74129         0.97204
C         64.98952        45.79991         0.12169
C         63.77274        46.55915         0.20025
C         64.87449        48.58594        -0.64786
C         63.69766        47.89023        -0.22392
C         64.90527        49.97745        -0.81339
C         63.64443        50.73025        -0.60032
C         64.90406        52.97158        -0.83624
C         63.65536        52.22053        -0.60730
C         64.89580        54.35388        -0.82890
C         63.62515        55.09461        -0.80120
C         64.88509        57.30670        -0.85774
C         63.60759        56.49602        -0.82144
C         64.68628        58.60251        -0.02556
C         63.53825        59.40391        -0.63992
C         64.75487        61.53518        -0.44524
C         63.55085        60.78000        -0.75977
C         64.74236        62.89296        -0.30466
C         63.59358        63.74220        -0.82846
C         64.66330        65.78066         0.25093
C         63.55444        65.15510        -0.26364
C         64.66305        67.18689         0.62210
C         63.39407        67.88104         0.59394
C         66.98278        32.83471         0.93990
C         65.85106        33.47977         0.53605
C         67.14227        35.61394         0.41496
C         65.86732        34.91073         0.22621
C         67.17870        37.03292         0.25468
C         65.93898        37.81636         0.61500
C         67.25735        39.91615        -0.12428
C         66.12430        39.32101         0.65253
C         67.25984        41.41130        -0.29309
C         66.00079        42.19574        -0.11243
C         67.37299        44.29796        -0.29599
C         66.12711        43.65861         0.04640
C         67.38779        45.71907        -0.46198
C         66.15676        46.41382        -0.39698
C         67.44513        48.57660        -0.94039
C         66.08951        47.79990        -0.85150
C         67.36606        50.02024        -0.75782
C         66.14770        50.69546        -0.85381
C         67.42559        52.95454        -0.81821
C         66.14050        52.18704        -0.98144
C         67.37400        54.40644        -0.53611
C         66.14468        55.09936        -0.68325
C         67.29325        57.16041        -0.07489
C         66.12063        56.50274        -0.48438
C         67.28386        58.63697         0.10494
C         65.99943        59.38326         0.05886
C         67.30606        61.50969        -0.13843
C         66.05896        60.76636        -0.56408
C         67.26357        62.89966         0.12342
C         65.94951        63.56141         0.23683
C         67.18673        65.76384         0.62561
C         65.91014        65.02580         0.53489
C         67.14735        67.17517         0.80240
C         65.85889        67.84789         0.91498
C         67.00972        69.95342         1.43808
C         65.87275        69.23496         1.34176
C         69.45255        31.39452         1.66032
C         69.47467        32.77145         1.30778
C         68.26444        33.48404         0.98887
C         69.60761        35.51863         0.58021
C         68.33112        34.87101         0.66725
C         69.64667        36.88850         0.05113
C         68.40877        37.67063         0.08388
C         69.80496        39.80718        -0.30242
C         68.50130        39.09922        -0.29929
C         69.82194        41.30643        -0.22707
C         68.56824        42.11149        -0.15957
C         69.84412        44.24364        -0.47402
C         68.58438        43.57237        -0.39355
C         69.87084        45.67982        -0.49801
C         68.64370        46.42233        -0.57828
C         69.90502        48.55756        -0.47241
C         68.67645        47.83510        -0.63311
C         69.90673        49.98072        -0.39825
C         68.61388        50.70629        -0.36275
C         69.93223        52.94399        -0.52973
C         68.62997        52.19637        -0.35095
C         69.79948        54.30738         0.13568
C         68.55196        55.08358        -0.14466
C         69.72206        57.20313         0.66432
C         68.51505        56.46842         0.09240
C         69.78357        58.66135         0.26103
C         68.56477        59.33280        -0.32256
C         69.73092        61.53128         0.17359
C         68.51865        60.82157        -0.06549
C         69.70018        62.95236         0.32142
C         68.44572        63.63320         0.35049
C         69.63422        65.80233         0.69615
C         68.40909        65.07112         0.56942
C         69.59565        67.21963         0.89571
C         68.35151        67.89693         0.93073
C         69.51696        69.94084         1.83197
C         68.33928        69.41681         0.98307
C         69.55018        71.44227         1.95145
C         71.85420        31.37819         1.93053
C         70.61543        30.71227         1.96834
C         71.90899        32.72007         1.59141
C         70.73546        33.44929         1.28018
C         72.02110        35.60616         0.97839
C         70.79290        34.84763         0.90338
C         72.10760        36.92912         0.66559
C         71.00087        37.65474         0.03646
C         72.19566        39.93062         0.17769
C         70.97615        39.14817        -0.03119
C         72.26902        41.25616        -0.07224
C         71.09400        41.99447        -0.68356
C         72.27438        44.22384        -0.49611
C         71.07136        43.50784        -0.48177
C         72.30522        45.61788        -0.45193
C         71.11481        46.37856        -0.45302
C         72.32947        48.56623        -0.21984
C         71.13036        47.82667        -0.38732
C         72.32708        49.94274        -0.13437
C         71.12182        50.70641        -0.22376
C         72.32275        52.89139         0.13828
C         71.14648        52.14328        -0.12217
C         72.32874        54.26087         0.30178
C         71.08386        55.03199         0.45501
C         72.21981        57.24932         0.46460
C         71.05097        56.50246         0.46127
C         72.20323        58.64984         0.50225
C         70.98307        59.36541         0.32499
C         72.15929        61.57788         0.32854
C         70.97879        60.83049         0.23791
C         72.13519        62.97022         0.41350
C         70.92389        63.68369         0.44695
C         72.07812        65.88691         0.65644
C         70.88767        65.12401         0.60063
C         72.05383        67.25525         0.84971
C         70.83514        67.96066         1.01861
C         71.97875        70.15705         1.26654
C         70.81879        69.35001         1.32958
C         71.93710        71.51583         1.51843
C         70.70036        72.15650         1.84638
O         62.17775        49.00658        -1.75094
O         56.48618        51.84436         1.78343
O         63.64998        51.49510         0.68014
O         66.69090        59.19209         1.33133
O         42.11219        53.68168         1.65837
O         57.00625        58.71564         0.45134
O         66.46563        41.79937        -1.45872
O         59.52127        62.58665        -2.30836
O         58.40498        40.13329        -2.52325
O         44.53979        47.96595         2.84339
O         53.82047        51.56881        -1.20869
O         66.75283        48.06573        -2.11714
O         57.64501        52.43454        -1.55343
O         65.71462        64.04732         1.62924
O         70.46135        37.03399        -1.16449
O         39.24669        49.52502        -0.73131
O         68.45293        51.51441         0.91193
O         60.47316        46.26397         1.89129
O         61.91011        61.32048        -2.56207
O         54.72402        54.14180         1.29286
O         66.95645        52.60579        -2.15382
O         50.09168        49.30354         2.37088
O         53.27380        48.12372         2.19800
O         61.65516        65.81631        -1.76269
O         67.55175        39.31508        -1.42083
O         51.91302        46.63630        -1.25482
O         47.88565        46.74829        -1.08789
O         39.31917        51.96109        -1.49126
O         53.55382        55.48375        -2.06190
O         66.37427        38.51853         1.85583
O         70.19866        54.40872         1.51974
O         61.72019        52.40101        -2.10934
O         61.62974        44.05524         1.96034
O         57.15394        57.17259        -2.87026
O         59.08334        59.08914        -2.50948
O         65.22532        35.31957        -1.05099
O         69.30438        41.74060         1.07751
O         54.05606        61.44063        -1.63077
O         64.08869        39.74153         1.86334
O         63.92072        42.87250         2.17505
O         44.83635        53.24481         2.52324
H         44.74795        52.39138         3.01182
O         69.29360        69.41475         3.17745
H         70.03636        69.71272         3.74310
O         57.53335        54.78486         1.29822
H         56.67660        54.53711         1.72271
O         64.28132        58.23695         1.30288
H         65.06113        58.38141         1.89102
O         57.55557        46.36316        -1.66390
H         56.67479        46.31316        -2.09231
O         71.15445        41.78165        -2.12464
H         71.96346        42.21627        -2.46592
O         61.74703        39.52027        -1.83734
H         61.03310        39.28031        -2.46678
O         47.55270        50.04448         3.14371
H         46.62737        50.15376         3.47151
O         68.65467        59.11441        -1.76910
H         69.32254        59.73407        -2.13050
O         70.05944        53.24549        -1.95144
H         70.06255        52.40356        -2.45339
O         52.34190        44.10275         1.35875
H         52.34821        43.12650         1.45281
O         44.80207        50.45091         3.16259
H         44.40026        49.63702         3.56521
O         66.20259        60.54135        -1.99995
H         65.72600        59.71181        -2.24460
O         69.51036        57.17075         2.12657
H         69.61025        56.22603         2.39396
O         63.91474        63.92549        -2.24620
H         63.48001        63.20794        -2.75715
O         65.10075        57.78696        -2.22039
H         65.21668        57.01295        -2.81166
O         50.89723        54.69892        -2.16339
H         51.77138        54.91854        -2.57007
O         68.56858        69.90039        -0.37110
H         67.82141        69.59943        -0.92931
O         54.95086        48.80228        -1.06022
H         54.49720        49.64790        -1.33005
O         56.14040        47.83907         2.27127
H         56.95510        47.39340         2.58409
H         37.42434        48.89353         1.29904
H         35.62754        50.45125         1.91506
H         37.43465        53.66662        -0.32555
H         35.62423        52.80842         1.10376
H         39.14845        47.85788         1.34516
H         39.19587        54.48167        -1.01291
H         41.27242        46.93808         2.17358
H         41.12218        55.85011        -0.54665
H         44.88127        44.90227         0.21772
H         42.79399        45.99870         0.85076
H         44.84095        58.02035        -0.72855
H         42.75090        56.78851        -0.50536
H         46.53213        43.87239        -0.13666
H         46.42800        59.05590        -0.25917
H         48.61939        42.80304        -0.68200
H         48.51671        60.30305        -0.20479
H         52.39090        40.83032        -1.72351
H         50.31119        42.06382        -1.57422
H         52.22060        62.47013         0.19669
H         50.16304        61.17766         0.38066
H         54.05132        39.76314        -1.62742
H         54.00670        63.45004         0.46892
H         56.16088        38.58937        -1.92293
H         56.15685        64.52549         0.73845
H         59.69657        36.25077        -0.62382
H         57.89546        37.53999        -1.60880
H         59.70346        66.82438        -0.00495
H         57.74349        65.50499         0.43965
H         61.13066        35.19419         0.32259
H         61.35331        67.87800         0.01423
H         63.23062        33.94527         0.35585
H         63.33532        68.92097         0.94145
H         66.91322        31.76364         1.17271
H         64.91583        32.91427         0.42852
H         66.95098        70.99937         1.77110
H         64.92467        69.71020         1.63028
H         68.49885        30.85150         1.69502
H         68.61931        71.96063         2.22276
H         72.77791        30.83261         2.16723
H         70.57305        29.64847         2.23966
H         72.88844        33.21534         1.55868
H         72.90920        35.12372         1.40908
H         73.03011        37.47307         0.91353
H         73.08902        39.40992         0.55182
H         73.22199        41.78022         0.09420
H         73.23202        43.68433        -0.53229
H         73.28275        46.11766        -0.43906
H         73.29061        48.04031        -0.14065
H         73.28717        50.45814         0.00043
H         73.28963        52.37073         0.20126
H         73.29155        54.77410         0.42949
H         73.19479        56.74189         0.45015
H         73.15937        59.18280         0.57322
H         73.13572        61.07649         0.34987
H         73.09446        63.49832         0.49048
H         73.05395        65.39373         0.55814
H         73.01076        67.78978         0.91654
H         72.93646        69.71172         0.96195
H         72.85172        72.11853         1.43769
H         70.69064        73.24585         1.99635
