         324
 CSIRO Nanostructure Databank - Neutral Graphene Oxide Data Set
C         30.50637        57.21765        -0.64075
C         30.62914        58.62906        -0.37778
C         29.55883        59.45782        -0.80436
C         30.81269        61.47270        -0.35176
C         29.63354        60.84864        -0.74778
C         32.84638        52.88397        -0.16835
C         32.82612        54.26823         0.09521
C         31.64689        54.95132        -0.36397
C         33.01559        57.19751         0.80992
C         31.27011        56.24977         0.01606
C         33.03384        58.53024         0.41567
C         31.84338        59.26409         0.08009
C         33.16772        61.37195         0.29915
C         31.94759        60.70316         0.00987
C         35.18739        48.54449        -0.46219
C         35.19047        49.95219        -0.29603
C         33.99417        50.69878        -0.27731
C         35.24983        52.75876         0.23419
C         34.01245        52.09507        -0.05841
C         35.23564        54.12430         0.62179
C         34.04141        54.88865         0.62690
C         35.38893        56.94495         1.08525
C         34.16225        56.31962         0.87030
C         35.53032        58.39530         0.87379
C         34.35182        59.20650         0.41465
C         35.58770        61.31752         0.80549
C         34.37834        60.68577         0.54360
C         37.61049        44.23853        -0.60830
C         37.61169        45.66218        -0.62375
C         36.40185        46.39459        -0.61455
C         37.64269        48.52448        -0.53035
C         36.38953        47.80826        -0.53086
C         37.66887        49.93620        -0.36848
C         36.44603        50.65231        -0.17621
C         37.74155        52.71775         0.21445
C         36.47634        52.03462         0.11593
C         37.79789        54.06762         0.64678
C         36.52822        54.69760         1.06532
C         37.91556        56.87654         1.37003
C         36.60117        56.18794         1.36955
C         37.86660        58.24919         2.02870
C         36.65433        59.09829         1.57575
C         38.04664        61.21665         1.46206
C         36.73007        60.58952         1.38639
C         40.11960        39.87414        -0.02802
C         40.12612        41.35098        -0.38740
C         38.85052        42.10319        -0.40111
C         40.04599        44.27135        -0.19497
C         38.80492        43.49138        -0.45554
C         40.10058        45.69912        -0.55995
C         38.85613        46.38723        -0.66759
C         40.08845        48.52999        -0.82751
C         38.86078        47.81518        -0.67885
C         40.09136        49.92223        -0.77004
C         38.90529        50.63835        -0.43894
C         40.15169        52.78884        -0.21402
C         38.94149        52.04940        -0.14902
C         40.21610        54.13921         0.20259
C         39.01990        54.77652         0.68868
C         40.43715        56.71317         1.53575
C         39.06570        56.16775         1.14429
C         40.46219        58.23694         1.72852
C         39.19222        59.02216         1.95636
C         40.46901        61.13882         1.62850
C         39.21441        60.48969         1.66787
C         42.96491        35.80191        -0.16163
C         42.86546        37.19464         0.00122
C         41.60855        37.87314        -0.09559
C         42.68105        40.02362         0.29643
C         41.50745        39.24884         0.04099
C         42.64863        41.45198         0.23949
C         41.41119        42.10289        -0.24274
C         42.60688        44.32141        -0.13805
C         41.34517        43.57146        -0.01887
C         42.57993        45.69386        -0.46544
C         41.32341        46.35368        -0.70337
C         42.63358        48.49193        -1.01787
C         41.32506        47.76108        -1.23720
C         42.62626        49.94991        -1.27926
C         41.31258        50.67924        -1.14054
C         42.57873        52.92539        -1.05698
C         41.29577        52.16767        -0.92266
C         42.63937        54.28257        -0.45677
C         41.46330        54.88367         0.10155
C         42.69507        56.98121         0.42215
C         41.54556        56.21167         0.62262
C         42.82121        58.32970         0.91236
C         41.68235        58.99011         1.39658
C         42.93352        61.07313         1.68123
C         41.70270        60.42783         1.59864
C         45.56160        33.09531        -0.09572
C         44.32323        33.72806        -0.21467
C         45.38993        35.89080         0.24105
C         44.21195        35.13427        -0.04907
C         45.30356        37.30296         0.40974
C         44.04402        37.95738         0.28718
C         45.11253        40.12295         0.76845
C         43.95520        39.37105         0.46199
C         44.96057        41.58408         1.14382
C         43.77285        42.23401         0.48971
C         45.01676        44.40357         0.25902
C         43.80527        43.64795         0.18675
C         45.00748        45.77501        -0.10635
C         43.81809        46.41059        -0.51980
C         45.09650        48.51781        -1.35909
C         43.82073        47.82408        -0.87497
C         45.08186        50.01862        -1.09893
C         43.90581        50.69864        -1.14728
C         45.10568        52.91890        -0.95869
C         43.88109        52.19840        -1.45943
C         45.09257        54.30272        -0.82959
C         43.84012        54.98583        -0.58195
C         45.13509        57.21001        -0.39723
C         43.82712        56.43212        -0.33604
C         45.23620        58.50511         0.31986
C         44.08481        59.01691         0.92014
C         45.44058        60.97338         1.67765
C         44.16295        60.22487         1.81493
C         46.71573        33.82345         0.18863
C         47.81023        35.99642         0.65718
C         46.65688        35.23365         0.36366
C         47.74128        37.40017         0.83035
C         46.47252        38.06145         0.69849
C         47.55811        40.21269         1.19395
C         46.37981        39.47651         0.88161
C         47.46653        41.66798         1.39604
C         46.22973        42.37531         0.97602
C         47.51171        44.45939         0.61866
C         46.22995        43.71200         0.67941
C         47.50088        45.90549         0.27353
C         46.20154        46.68262         0.12862
C         47.60049        48.65460        -0.58863
C         46.41565        47.75493        -0.97393
C         47.60709        49.99039        -0.87006
C         46.38078        50.75620        -1.34382
C         47.60853        52.94087        -0.88649
C         46.35276        52.13728        -0.65154
C         47.56668        54.32506        -0.99482
C         46.34272        55.04296        -0.83511
C         47.58645        57.16072        -0.63546
C         46.38068        56.44682        -0.63194
C         47.60702        58.55336        -0.31094
C         46.48496        59.20973         0.30633
C         47.78440        61.21725         1.29018
C         46.56163        60.49230         1.02315
C         48.89485        38.16611         1.12378
C         50.02941        40.32612         1.49517
C         48.82781        39.56831         1.29403
C         50.03772        41.72587         1.54087
C         48.74316        42.43959         1.53614
C         49.88202        44.61520         1.36393
C         48.74767        43.87534         1.19326
C         49.75506        46.13337         1.44572
C         48.71520        46.72057         0.51589
C         50.04971        48.71592         0.11817
C         48.77760        48.00475         0.02595
C         50.16358        50.06888        -0.48045
C         48.87654        50.76776        -0.90625
C         50.05821        52.94985        -0.67925
C         48.86929        52.24396        -0.84985
C         50.01429        54.45838        -0.54107
C         48.85617        55.02954        -1.37674
C         50.11004        57.22831        -0.90874
C         48.79924        56.58841        -1.34931
C         50.10713        58.62930        -0.66454
C         48.82690        59.24431        -0.59111
C         50.28241        61.28946         0.90649
C         48.95005        61.08069         0.54123
C         51.19926        42.51126         1.63339
C         52.33466        44.66576         1.76914
C         51.15504        43.94199         1.64304
C         52.39795        46.12631         1.67739
C         51.09231        46.87273         1.42447
C         52.50772        48.77268         0.41437
C         51.15439        48.15712         0.71613
C         52.42873        50.27537         0.57449
C         51.28737        50.91996        -0.07354
C         52.54229        53.02821        -0.30267
C         51.28700        52.28753        -0.33332
C         52.56519        54.41773        -0.73521
C         51.33405        55.12999        -0.85702
C         52.58192        57.30682        -1.31452
C         51.32643        56.52592        -0.99568
C         52.57276        58.70602        -0.72230
C         51.33710        59.35927        -0.41120
C         52.65539        61.22602         0.49031
C         51.39436        60.64050         0.26642
C         53.67632        46.79144         1.39151
C         54.93326        48.86777         1.00065
C         53.72226        48.14216         1.06591
C         55.00148        50.27390         0.74517
C         53.72235        51.04421         0.67086
C         55.02505        52.96018        -0.22282
C         53.71457        52.38788         0.08330
C         55.05875        54.40256        -0.70968
C         53.79129        55.12643        -0.82779
C         55.06802        57.22431        -0.90308
C         53.84828        56.54741        -0.95653
C         55.06074        58.73076        -1.13044
C         53.79776        59.35316        -0.57979
C         55.09325        61.29413         0.22754
C         53.85298        60.64601         0.02628
C         56.19805        50.95293         0.63413
C         57.49298        53.09580         0.13633
C         56.20745        52.45840         0.59319
C         57.53172        54.37626        -0.33474
C         56.31462        55.13258        -0.55703
C         57.56808        57.23187        -0.75905
C         56.31200        56.52123        -0.72012
C         57.55457        58.65889        -0.86908
C         56.34853        59.42048        -0.72665
C         57.51063        61.44579         0.30542
C         56.33771        60.72853        -0.14752
C         58.86197        55.02836        -0.65243
C         60.01783        57.24360        -0.64874
C         58.81101        56.54353        -0.69167
C         60.04630        58.66536        -0.74640
C         58.80863        59.29289        -1.00602
C         60.06266        61.53628         0.32556
C         58.78356        61.24939        -0.22204
C         61.21337        59.45780        -0.49756
C         61.19420        60.76263         0.01135
O         58.81696        60.60486        -1.48556
O         48.75493        60.59976        -0.78816
O         51.67359        46.88966         2.76740
O         52.68089        48.48054        -0.95705
O         49.04411        54.56670        -2.76888
O         36.49127        55.18961         2.43976
O         44.21368        57.22678        -1.53149
O         52.84866        50.85848         1.84718
O         40.03558        58.64420         3.08798
O         41.83212        50.32476        -2.47439
O         40.56768        43.97775         1.16699
O         47.74344        44.91783        -0.80505
O         31.81342        56.66618         1.25765
O         49.80616        50.20744        -1.88879
O         40.97024        41.65600        -1.57543
O         47.92379        42.12825         2.73769
O         36.22423        59.92780         2.69297
O         35.36303        58.73899        -0.55999
O         55.23274        53.23550        -1.62315
O         41.60126        52.91134        -2.15832
O         44.16613        59.70259         3.21330
H         43.28289        59.30027         3.36718
O         54.96694        58.90651        -2.60185
H         55.84088        58.67028        -2.98145
O         59.32957        54.54210        -1.92674
H         58.64482        54.73842        -2.59871
O         52.58766        57.45036        -2.76767
H         53.37331        58.01102        -2.99342
O         41.23564        47.63035        -2.70154
H         41.37956        48.53879        -3.06586
O         39.29879        39.16359        -0.96263
H         39.62570        39.37716        -1.86158
O         49.69525        54.76648         0.84894
H         50.36834        54.33434         1.41630
O         50.39296        54.94121        -3.18611
H         50.64797        54.17524        -3.75718
O         46.30305        51.83006         0.78575
H         46.38031        52.67340         1.28028
O         45.96307        47.41600         1.35143
H         45.92614        46.78506         2.10021
O         49.18067        46.36309         2.77295
H         49.94634        46.46255         3.38961
O         46.50009        50.96186        -2.76237
H         46.04949        50.20709        -3.20918
O         44.68590        41.59220         2.59659
H         45.54043        41.44413         3.05807
O         55.97643        52.93303         1.96723
H         55.30546        52.34728         2.38004
O         46.83333        47.06777        -2.17353
H         47.42259        46.31165        -1.94874
O         44.97894        48.49905        -2.81229
H         45.51310        47.73247        -3.13570
O         43.96688        52.27863        -2.90446
H         43.05600        52.10542        -3.24371
O         40.71908        56.12175         2.83197
H         40.20507        56.64611         3.49021
O         37.62606        57.93494         3.41758
H         37.23170        58.73984         3.82755
O         48.64636        57.07240        -2.70920
H         49.35847        56.66495        -3.25349
H         29.83281        56.91008        -1.45482
H         28.63999        58.97926        -1.17194
H         30.89008        62.56904        -0.35626
H         28.76715        61.45380        -1.04872
H         31.91878        52.40147        -0.51127
H         31.03593        54.42631        -1.11445
H         33.16760        62.47232         0.32420
H         34.22512        48.01465        -0.51986
H         33.03323        50.19073        -0.44535
H         35.64906        62.41594         0.76763
H         36.65065        43.70727        -0.69334
H         35.44556        45.85082        -0.61078
H         38.12321        62.28975         1.23326
H         39.63478        39.75815         0.97961
H         37.91651        41.52375        -0.45879
H         40.49374        62.23715         1.57824
H         42.05934        35.21621        -0.37963
H         40.69990        37.28802        -0.30040
H         42.98766        62.16406         1.80563
H         45.62730        32.00605        -0.22755
H         43.42210        33.13937        -0.43838
H         45.53184        61.90494         2.25723
H         47.68368        33.31030         0.28056
H         48.78178        35.48966         0.75605
H         47.81220        61.83003         2.20312
H         49.86843        37.66060         1.20531
H         50.98442        39.78204         1.54317
H         50.50068        61.92719         1.77545
H         52.17948        42.01774         1.71208
H         53.28659        44.11787         1.84119
H         52.70494        62.18875         1.01971
H         54.60561        46.21432         1.52156
H         55.86972        48.35729         1.28045
H         55.09206        62.27326         0.72967
H         57.15108        50.40262         0.65035
H         58.43410        52.55007         0.30466
H         57.38085        62.13940         1.14978
H         59.62464        54.70442         0.10135
H         60.95969        56.69085        -0.52033
H         60.16414        62.33984         1.06967
H         62.18286        58.93599        -0.49444
H         62.16286        61.15230         0.36387
