         490
 CSIRO Nanostructure Databank - Neutral Graphene Oxide Data Set
C         37.67459        50.20539        -0.39906
C         36.49872        50.84803        -0.22129
C         37.61555        52.97287         0.21341
C         36.45988        52.25927         0.06636
C         40.13006        48.77196         0.41191
C         40.12733        50.12008         0.23150
C         38.99754        50.92447        -0.39518
C         40.07967        53.08628         0.33235
C         38.91170        52.36226         0.10670
C         40.12904        54.53540         0.45620
C         42.53931        48.28575         0.29652
C         41.32224        48.03683         0.86207
C         42.59733        50.40644        -0.13053
C         41.36974        50.89229         0.60838
C         42.54380        53.04491         0.59246
C         41.35108        52.39645         0.44478
C         42.60752        54.52462         0.86596
C         41.28705        55.20776         0.63364
C         45.14432        46.12132         1.85137
C         43.97939        46.62340         1.40857
C         45.03371        48.66902         0.49696
C         43.88701        47.90033         0.71775
C         45.03339        50.08119        -0.14367
C         43.80366        50.91053         0.16889
C         45.07543        53.02662         0.39094
C         43.83702        52.27110         0.83162
C         45.01503        54.43484         0.14628
C         43.81350        55.15790         0.17576
C         44.93360        57.09843        -0.84914
C         43.79084        56.47289        -0.34512
C         47.78735        44.75148         2.10001
C         47.54860        45.91777         1.16479
C         46.44567        46.85965         1.69690
C         47.54058        48.74129         0.53080
C         46.34185        48.11875         0.84545
C         47.56382        50.11641        -0.11008
C         46.28504        50.82613         0.38205
C         47.48838        53.00141        -0.15144
C         46.25126        52.31943         0.17043
C         47.47811        54.35162        -0.40333
C         46.30517        55.19299        -0.01129
C         47.42548        57.19549        -1.00908
C         46.20361        56.50866        -0.74350
C         47.44398        58.60797        -1.24497
C         49.98276        44.47135         1.02856
C         48.93614        44.06966         2.05232
C         50.05780        45.98594         0.99701
C         48.84582        46.68201         0.95561
C         50.05133        48.78003         0.61343
C         48.82044        48.07842         0.73507
C         50.06503        50.23738         0.43440
C         48.80980        50.92115         0.18393
C         49.97444        53.08056         0.03136
C         48.76478        52.28715        -0.02898
C         49.96508        54.39982        -0.38179
C         48.70619        54.99972        -0.97037
C         49.88843        57.20926        -1.04803
C         48.67854        56.51105        -0.93566
C         49.88803        58.63476        -1.25904
C         48.62216        59.29721        -1.35339
C         52.60942        41.72829         0.97597
C         51.39127        42.44403         0.89515
C         52.50485        44.51703         1.64182
C         51.30303        43.77229         1.23711
C         52.53518        45.99697         1.35309
C         51.28023        46.69201         0.95514
C         52.57402        48.84128         0.60376
C         51.27188        48.08570         0.77819
C         52.46970        50.28188         1.13784
C         51.23213        50.95447         0.56838
C         52.49065        53.06147         0.14738
C         51.20305        52.45438         0.65975
C         52.43868        54.51092        -0.14227
C         51.16799        55.18017        -0.45047
C         52.37991        57.19110        -1.27752
C         51.15519        56.50961        -0.89896
C         52.34897        58.61906        -1.57472
C         51.10200        59.33670        -1.43214
C         52.27649        61.46691        -1.76331
C         51.15292        60.77976        -1.45253
C         55.05312        40.19659         1.49081
C         55.01685        41.61039         1.45456
C         53.80112        42.33103         1.36925
C         55.04109        44.50437         1.21439
C         53.83791        43.78131         1.81786
C         55.01286        45.91935         0.92392
C         53.82010        46.64107         1.04520
C         55.05300        48.80384         0.59307
C         53.83116        48.14021         1.17691
C         54.99905        50.18774         0.39245
C         53.84037        51.04945         0.91231
C         54.89128        52.96357        -0.37729
C         53.68705        52.37309         0.16283
C         54.80849        54.26793        -1.02809
C         53.68038        55.17170        -0.71523
C         54.79562        57.08936        -1.92102
C         53.56773        56.47520        -1.38468
C         54.78014        58.60557        -2.09477
C         53.51677        59.31395        -1.86614
C         54.82498        61.48155        -2.03479
C         53.50111        60.76506        -2.27695
C         54.82754        62.92419        -1.98960
C         57.50474        40.13707         1.43581
C         56.23562        39.48589         1.57803
C         57.50756        41.55449         1.27436
C         56.30192        42.37471         1.67601
C         57.39798        44.44023         0.59173
C         56.23502        43.79825         1.11365
C         57.42845        45.84183         0.30772
C         56.23555        46.60077         0.52001
C         57.43225        48.70477        -0.06167
C         56.22653        48.02573         0.32414
C         57.38737        50.14029        -0.20376
C         56.16786        50.86300        -0.06931
C         57.33901        52.97635        -0.72447
C         56.11973        52.26847        -0.41014
C         57.36014        54.34382        -1.08925
C         56.12456        55.00806        -1.45746
C         57.28166        57.19341        -1.59981
C         56.09581        56.45406        -1.63493
C         57.24407        58.63967        -1.81123
C         56.06194        59.33354        -1.97387
C         57.29977        61.51341        -2.02434
C         56.04109        60.79127        -2.02530
C         57.29050        63.00425        -2.30553
C         55.96741        63.65201        -2.03047
C         59.95745        37.30973         1.54015
C         58.78432        37.97606         1.47618
C         59.95322        40.11944         1.09942
C         58.72943        39.41722         1.34517
C         59.91036        41.50868         0.78964
C         58.66853        42.20450         0.87399
C         59.88236        44.28270         0.08655
C         58.56678        43.58187         0.36110
C         59.84539        45.73224        -0.15498
C         58.66995        46.51567        -0.11379
C         59.83049        48.78140        -0.49697
C         58.64833        47.97653        -0.28670
C         59.83416        50.20329        -0.38028
C         58.59459        50.89457        -0.37674
C         59.81419        53.03831        -0.66959
C         58.58711        52.30217        -0.55994
C         59.81327        54.44674        -0.85411
C         58.55621        55.12776        -1.06896
C         59.74875        57.33177        -1.00485
C         58.51783        56.51662        -1.31724
C         59.81338        58.65736        -1.72450
C         58.52213        59.36777        -1.98002
C         59.79480        61.53171        -1.96774
C         58.52064        60.84507        -1.99105
C         59.77658        63.02158        -1.91676
C         58.47982        63.68919        -1.67335
C         59.60240        65.51285        -0.48064
C         58.43299        64.89807        -1.04211
C         62.68085        35.95959         1.70198
C         62.38520        37.20362         0.89400
C         61.28375        38.01763         1.59119
C         62.40990        40.12592         0.81596
C         61.20788        39.44204         1.10168
C         62.40338        41.53016         0.64017
C         61.14686        42.22427         0.60945
C         62.35852        44.41642         0.77298
C         61.12432        43.61595         0.45842
C         62.34825        45.67392        -0.06288
C         61.16245        46.14412        -0.56042
C         62.31726        48.84902        -0.39225
C         61.11819        48.26120        -0.78979
C         62.31715        50.26456        -0.29788
C         61.06474        50.93491        -0.42373
C         62.29107        53.05277        -0.72770
C         61.05822        52.34853        -0.56985
C         62.26970        54.44310        -0.94813
C         61.05103        55.15111        -0.95201
C         62.23590        57.31862        -1.10444
C         61.05823        56.59205        -1.09954
C         62.24721        58.75182        -1.29275
C         61.06098        59.44503        -1.57331
C         62.32402        61.61806        -1.95177
C         61.01125        60.85969        -1.79492
C         62.30691        63.01900        -1.33374
C         61.02293        63.75463        -1.46185
C         62.04328        65.47001         0.03817
C         60.85286        64.97161        -0.64547
C         61.96017        66.10109         1.24138
C         65.03492        35.91062         1.01163
C         63.89904        35.37938         1.73230
C         64.84036        37.18756         0.21839
C         63.65188        38.00437         0.66372
C         64.88696        40.12249         0.35151
C         63.65988        39.37612         0.63884
C         64.89617        41.52638         0.33440
C         63.64749        42.27325         0.48821
C         64.93268        44.45003         0.60621
C         63.64485        43.65210         0.52218
C         64.87282        45.85578         0.01415
C         63.55377        46.53810         0.05033
C         64.82926        48.76225        -0.06707
C         63.51595        48.03644        -0.04775
C         64.82504        50.26080        -0.20188
C         63.54591        50.98724        -0.35415
C         64.80534        53.06356        -0.79742
C         63.54730        52.35046        -0.64225
C         64.81238        54.44802        -0.97071
C         63.53486        55.18213        -1.31198
C         64.78947        57.33486        -1.01013
C         63.51246        56.58655        -0.72705
C         64.75863        58.70715        -1.10376
C         63.51798        59.46761        -1.26023
C         64.78546        61.59298        -1.46286
C         63.53212        60.82879        -1.50069
C         64.75864        63.08291        -1.18127
C         63.43248        63.70330        -0.98847
C         64.63839        65.81618         0.04547
C         63.36290        65.20833        -0.67959
C         64.38580        66.40470         1.43507
C         63.13232        66.55507         1.93886
C         67.60370        33.26128         1.36161
C         66.51784        34.00907         1.63773
C         67.36203        35.83357         0.17789
C         66.24287        35.25137         0.92649
C         67.31141        37.27087        -0.08136
C         66.11782        37.97809         0.13069
C         67.33022        40.10632        -0.08810
C         66.10364        39.39569         0.11631
C         67.32916        41.52411        -0.05010
C         66.13422        42.24045         0.15526
C         67.31939        44.39696        -0.14649
C         66.15622        43.68748         0.16342
C         67.29996        45.83727        -0.34423
C         66.02670        46.55048        -0.27983
C         67.20631        48.71464        -0.69026
C         66.04993        48.01156        -0.42441
C         67.24820        50.16989        -0.77735
C         66.06192        50.92521        -0.63666
C         67.28162        53.02411        -0.95076
C         66.04999        52.33265        -0.79498
C         67.28319        54.45340        -0.95317
C         66.04227        55.17485        -0.96582
C         67.29105        57.29617        -0.94957
C         66.04552        56.60518        -0.97006
C         67.32718        58.72944        -0.99261
C         66.03129        59.43430        -0.93062
C         67.28208        61.66193        -1.06058
C         66.01953        60.91031        -1.01122
C         67.22984        63.00405        -0.69020
C         65.95463        63.67962        -0.56040
C         67.04824        65.40453         0.71443
C         65.87067        64.90291         0.09256
C         66.96574        66.45857         1.72904
C         65.56859        66.92398         2.17255
C         66.59183        67.75354         4.27518
C         65.45884        67.41247         3.53531
C         69.99296        31.65956         0.74762
C         69.88764        32.98876         0.31428
C         68.50161        33.59625         0.19184
C         69.66487        35.68933        -0.72933
C         68.49602        35.08984        -0.05990
C         69.65421        37.22610        -0.93546
C         68.49238        37.98034        -0.44516
C         69.76115        40.08918        -0.73210
C         68.53263        39.38132        -0.39075
C         69.78868        41.50531        -0.68471
C         68.65256        42.24412        -0.01396
C         69.70018        44.38529        -0.73612
C         68.55990        43.69914        -0.39559
C         69.72417        45.83258        -0.70872
C         68.46580        46.52498        -0.62589
C         69.71506        48.72189        -0.76329
C         68.45065        47.96078        -1.07360
C         69.71831        50.08302        -0.97885
C         68.48211        50.84720        -1.02210
C         69.73630        53.00825        -1.08486
C         68.51057        52.28388        -1.04617
C         69.75630        54.42513        -0.95686
C         68.51929        55.15542        -0.93872
C         69.76060        57.29872        -0.87057
C         68.52652        56.58026        -0.92596
C         69.76628        58.73119        -0.91961
C         68.52045        59.44184        -1.05268
C         69.80880        61.68639        -1.19795
C         68.51350        60.91241        -1.48756
C         69.71960        63.22646        -1.00273
C         68.43999        63.70869        -0.34956
C         69.52800        65.75915         0.76275
C         68.33841        64.85932         0.41812
C         69.43254        66.26165         2.20454
C         68.04314        66.36510         2.79907
C         69.03138        67.57363         4.80736
C         67.88276        67.38249         3.90092
C         69.00076        68.58851         5.86608
C         72.39562        31.73581         0.54699
C         71.23261        31.03152         0.86759
C         72.30744        33.04339         0.08059
C         71.05945        33.68895        -0.06644
C         72.09500        35.75320        -1.02864
C         70.97890        35.04187        -0.62370
C         72.07300        37.14957        -1.29179
C         70.93466        37.91689        -1.11839
C         72.07429        40.09861        -1.51170
C         70.93026        39.37270        -1.11959
C         72.06129        41.48529        -1.53761
C         70.93601        42.20209        -1.09428
C         72.17476        44.39047        -0.66572
C         70.95207        43.70596        -1.22680
C         72.15363        45.73226        -0.46026
C         70.94239        46.50723        -0.60490
C         72.21988        48.70838        -0.64332
C         70.94561        47.98891        -0.27236
C         72.24324        49.99552        -1.01871
C         71.00474        50.77374        -1.24073
C         72.25052        53.04891        -1.08935
C         71.00982        52.29592        -1.30257
C         72.22107        54.39019        -0.86912
C         70.99124        55.13688        -0.86282
C         72.19815        57.31022        -0.68716
C         70.99447        56.57310        -0.79284
C         72.19208        58.69830        -0.67615
C         70.99852        59.42710        -0.79835
C         72.16395        61.64390        -0.21429
C         71.04857        60.91610        -0.86355
C         72.15667        62.97941        -0.07788
C         70.98299        63.84049        -0.36161
C         72.02916        65.55138         1.28927
C         70.88520        65.12483         0.44815
C         71.86545        66.25817         2.42305
C         70.53628        66.53796         2.95594
C         71.57289        67.69974         5.00852
C         70.41328        67.09026         4.34042
C         71.42470        68.49537         6.10055
C         70.12915        68.94735         6.53218
O         52.33565        45.47408         2.74895
O         71.27010        65.14217        -0.96372
O         60.60270        63.77760        -2.87424
O         63.37683        47.37840         1.28037
O         41.67863        50.63585         1.98133
O         64.99246        49.61131         1.12069
O         70.80405        61.41793        -2.24045
O         53.37659        55.26478         0.71395
O         69.59398        66.25721         5.23378
O         66.50201        67.76865         1.33875
O         55.25223        54.29219        -2.40169
O         42.51297        49.18003        -0.81383
O         71.00318        51.46325        -2.53754
O         59.29999        58.72056        -3.08098
O         61.22850        47.11213        -1.56173
O         65.89067        60.26725         0.32647
O         69.34677        36.28940        -2.02164
O         65.00141        62.55145        -2.53080
O         54.70705        57.68975        -3.25726
O         59.11395        43.61559        -0.99767
O         70.99167        43.95034        -2.67841
H         70.92303        44.91978        -2.81405
O         48.71278        54.65225        -2.40413
H         49.54056        55.00923        -2.79068
O         65.10437        44.70002         2.05994
H         65.91122        45.24795         2.17371
O         53.37317        60.74387        -3.75220
H         53.88732        59.97496        -4.08306
O         61.87763        36.79771        -0.40190
H         62.65430        36.46856        -0.91860
O         68.37585        60.84071        -2.94245
H         68.57551        61.73371        -3.29996
O         63.23095        65.81540        -1.97843
H         63.88515        66.55114        -2.03268
O         47.63576        49.96073        -1.54823
H         46.73227        49.76632        -1.89733
O         65.05470        66.94560        -0.76966
H         65.71429        67.46854        -0.24206
O         43.91158        52.05737         2.28597
H         43.08463        51.49063         2.46151
O         51.12661        52.77372         2.09432
H         51.36334        51.95281         2.59395
O         42.90106        54.67065         2.30007
H         43.31561        53.82146         2.60018
O         67.90111        32.97324        -0.99011
H         67.03865        33.41219        -1.14918
O         46.62089        55.61373         1.38923
H         45.78620        55.95287         1.78165
O         47.11614        45.38059        -0.11975
H         46.98226        46.13978        -0.72701
O         53.87606        48.34750         2.63191
H         54.71927        47.96829         2.95797
O         49.51734        44.03529        -0.27921
H         48.59365        44.37869        -0.39692
O         61.68111        38.09020         2.99832
H         61.01637        38.63448         3.47084
O         64.52849        36.74947        -1.16548
H         64.63662        37.52954        -1.75109
O         56.47547        42.52768         3.12227
H         55.65070        42.96430         3.46330
O         70.86084        48.03615         1.19878
H         70.85798        48.97915         1.46750
O         54.07062        43.72132         3.26270
H         53.63182        44.52557         3.63812
O         69.62905        63.74114        -2.35646
H         70.41202        63.39294        -2.83973
O         52.77903        48.97867        -0.82633
H         52.65546        48.10277        -1.24762
O         46.88408        47.26956         3.02126
H         46.40259        48.09021         3.25790
O         63.47104        56.42250         0.72230
H         63.53864        57.31138         1.13033
O         54.31540        51.46734         2.22404
H         53.65251        52.09224         2.59124
O         69.01965        42.27848         1.41976
H         69.01217        41.35292         1.74490
O         46.27828        50.66035         1.82852
H         45.49428        51.15780         2.18808
O         57.50086        63.13306        -3.75376
H         56.76929        62.65825        -4.20206
O         68.43429        47.87101        -2.55236
H         68.50357        48.78600        -2.90167
O         59.61278        57.70337         0.41827
H         59.69493        56.88210         0.94875
O         39.40867        51.05903        -1.80875
H         39.41405        50.15921        -2.19885
O         62.30995        44.75742         2.19079
H         63.20687        45.09202         2.43493
O         52.17670        50.27953         2.55456
H         52.87501        49.73836         3.00264
O         63.53422        55.34030        -2.76019
H         63.49549        54.45029        -3.16793
O         69.40177        66.93143        -0.08048
H         69.75656        66.68182        -0.96345
O         67.80801        65.05616         3.43147
H         68.38914        65.03585         4.23214
O         45.05119        49.90840        -1.58681
H         44.17745        49.51002        -1.81673
O         62.48638        61.82104        -3.38467
H         61.88607        62.56625        -3.63591
H         37.67401        49.13119        -0.63917
H         35.54940        50.29566        -0.28342
H         37.55098        54.03684         0.48270
H         35.48516        52.75052         0.19206
H         39.20222        48.18603         0.29113
H         39.19615        55.10854         0.34915
H         41.21553        47.30487         1.67730
H         41.25617        56.30370         0.72945
H         45.15522        45.16018         2.38486
H         43.04630        46.06012         1.55928
H         44.82099        58.08124        -1.32859
H         42.83441        57.01108        -0.40193
H         47.00891        44.47905         2.82714
H         46.49540        59.15681        -1.32016
H         49.12425        43.21431         2.71815
H         48.58888        60.37887        -1.54014
H         52.61205        40.67536         0.66159
H         50.49365        41.92958         0.52630
H         52.24348        62.56439        -1.74466
H         50.25734        61.34265        -1.15283
H         54.10678        39.63687         1.49686
H         53.86980        63.45586        -1.91329
H         56.18636        38.39323         1.67343
H         55.90866        64.74958        -2.03558
H         59.95358        36.21400         1.63337
H         57.84464        37.40689         1.50829
H         59.47536        66.43537         0.10354
H         57.47200        65.41162        -0.89816
H         61.85173        35.49305         2.25389
H         60.98150        66.26112         1.71651
H         64.03180        34.45444         2.31254
H         62.97651        67.04294         2.91107
H         67.78174        32.33655         1.92916
H         65.83531        33.69510         2.44051
H         66.43877        68.27040         5.23457
H         64.47272        67.51855         4.00526
H         69.08346        31.09074         0.98526
H         68.04602        69.07809         6.10518
H         73.37877        31.25543         0.64685
H         71.29130        29.98982         1.21163
H         73.23390        33.56883        -0.18674
H         73.07940        35.26594        -1.04379
H         73.03585        37.63313        -1.50706
H         72.97641        39.56671        -1.84173
H         72.94240        42.03210        -1.90073
H         73.10593        43.82146        -0.52906
H         73.06871        46.23809        -0.12040
H         73.17281        48.17301        -0.52128
H         73.20193        50.47470        -1.26573
H         73.21329        52.52461        -1.15618
H         73.17489        54.91723        -0.73519
H         73.16451        56.79520        -0.61828
H         73.15205        59.22690        -0.60235
H         73.05687        61.08095         0.09193
H         73.04822        63.46861         0.33800
H         73.04256        65.36105         0.91052
H         72.75198        66.58503         2.98113
H         72.58266        67.51572         4.61700
H         72.31340        68.90196         6.60343
H         70.07610        69.68421         7.34580
