         424
 CSIRO Nanostructure Databank - Neutral Graphene Oxide Data Set
C          1.40234         2.14234         1.81945
C          1.35660         3.53222         1.69080
C          2.60869         1.45926         1.71878
C          2.53613         4.28774         1.46653
C          1.30382         6.47822         1.51705
C          1.23569         7.80015         1.21370
C          2.50234         5.71042         1.29468
C          2.35499         8.46318         0.45693
C          1.15643        10.71249         0.65442
C          1.15113        12.04873         0.87492
C          2.39450         9.97114         0.53391
C          2.46683        12.79288         0.96120
C          1.29526        15.00913         1.23521
C          1.25310        16.44667         1.13449
C          2.34706        14.29016         0.75675
C          2.38206        17.15386         0.79370
C          2.42817        18.61224         0.80770
C          3.81930         2.17060         1.49459
C          3.78729         3.59991         1.37900
C          5.04215         1.48166         1.35992
C          5.00622         4.32186         1.16161
C          3.71311         6.43281         1.01243
C          3.67343         7.80856         0.76479
C          4.97984         5.72983         0.99034
C          4.93372         8.61768         0.88293
C          3.57993        10.65699         0.30352
C          3.44438        12.13753        -0.02669
C          4.85061        10.00142         0.29274
C          4.75691        12.87622        -0.12358
C          3.43472        15.00527        -0.02797
C          3.59634        16.44063         0.42690
C          4.74446        14.23479        -0.07939
C          4.80300        17.09977         0.44678
C          3.60839        19.26220         0.85468
C          4.88092        18.48230         1.06622
C          6.26886         2.16554         1.16601
C          6.25495         3.61890         1.08880
C          7.44641         1.44018         0.94364
C          7.43428         4.33112         0.80210
C          6.17853         6.44418         0.66213
C          6.16534         7.85324         0.47429
C          7.40475         5.72618         0.52159
C          7.33272         8.54921         0.09643
C          6.03390        10.65757        -0.07000
C          5.96393        12.07931        -0.48838
C          7.29108         9.97329        -0.14095
C          7.24689        12.80423        -0.80930
C          5.96165        15.02782        -0.37498
C          6.04143        16.43329         0.11429
C          7.21360        14.31030        -0.76734
C          7.24820        17.09155         0.19564
C          6.13404        19.22204         0.70924
C          7.30452        18.53291         0.43100
C          8.74255         2.09496         0.89409
C          8.73228         3.64562         0.81624
C          9.91773         1.42663         0.32861
C          9.89392         4.30679         0.21092
C          8.60038         6.42553         0.15615
C          8.56319         7.82580        -0.06849
C          9.82940         5.70553        -0.03079
C          9.77505         8.53012        -0.37356
C          8.51482        10.67255        -0.42936
C          8.53716        12.09159        -0.62277
C          9.75466         9.96226        -0.46766
C          9.75728        12.78641        -0.65615
C          8.51627        15.04247        -0.63536
C          8.53319        16.30294         0.21278
C          9.78630        14.26783        -0.67461
C          9.79419        17.09711         0.01599
C          8.55979        19.20199         0.33923
C          9.78784        18.51261         0.15673
C         11.03099         2.11966        -0.05393
C         11.05759         3.57131        -0.08561
C         12.19130         1.34824        -0.64207
C         12.22781         4.26525        -0.54288
C         11.00580         6.39207        -0.44886
C         10.98908         7.82463        -0.55040
C         12.19618         5.66496        -0.69410
C         12.23330         8.53776        -0.70419
C         10.99177        10.66884        -0.55684
C         10.99729        12.09357        -0.56146
C         12.23190         9.95945        -0.60579
C         12.25100        12.79863        -0.46360
C         11.03068        14.96160        -0.27836
C         11.01506        16.38641        -0.11619
C         12.23692        14.26100        -0.33523
C         12.25310        17.09239        -0.02473
C         11.02976        19.21398         0.13496
C         12.25464        18.53581         0.07163
C         13.48372         2.12670        -0.68726
C         13.45534         3.53908        -0.76699
C         14.69257         1.42505        -0.67733
C         14.67738         4.27531        -0.98635
C         13.38407         6.38616        -1.27809
C         13.44966         7.84647        -0.89702
C         14.68012         5.64230        -1.08954
C         14.69097         8.54089        -0.87215
C         13.47605        10.66123        -0.53614
C         13.45229        12.09184        -0.40237
C         14.69410         9.93735        -0.60034
C         14.74130        12.83244        -0.08979
C         13.45855        14.98736        -0.27284
C         13.46797        16.37333        -0.10068
C         14.68937        14.23369        -0.68702
C         14.75765        17.07893         0.23268
C         13.49777        19.23847         0.03913
C         14.73481        18.57525         0.01158
C         15.93997         2.08134        -0.81385
C         15.93779         3.50618        -1.31150
C         17.14344         1.42006        -0.61074
C         17.19800         4.26217        -0.98068
C         15.93460         6.38128        -1.49639
C         15.94040         7.83833        -1.08161
C         17.19808         5.65449        -1.08908
C         17.16240         8.52744        -1.06531
C         16.00266        10.62585        -0.28954
C         15.98658        12.10402        -0.54037
C         17.20925         9.94214        -0.86153
C         17.14913        12.79907        -0.84681
C         15.98986        14.97220        -0.51866
C         15.99837        16.40994        -0.31262
C         17.13575        14.26202        -0.78982
C         17.17535        17.12032        -0.32002
C         15.95451        19.26150        -0.05341
C         17.21029        18.57418        -0.18704
C         18.40094         2.10578        -0.63757
C         18.40597         3.54514        -0.77629
C         19.61001         1.42289        -0.47614
C         19.63871         4.24758        -0.73073
C         18.41929         6.37344        -1.01680
C         18.42825         7.80372        -1.15876
C         19.64438         5.66790        -0.87120
C         19.63859         8.48957        -1.23069
C         18.38602        10.68295        -1.11404
C         18.38678        12.09028        -1.09833
C         19.62333         9.95193        -1.61474
C         19.63838        12.81807        -1.59515
C         18.39774        15.01617        -0.93614
C         18.46816        16.35210        -0.23486
C         19.67331        14.31122        -1.25030
C         19.69926        17.11850        -0.61676
C         18.41382        19.25593        -0.29877
C         19.65167        18.60339        -0.87095
C         20.85755         2.10649        -0.46233
C         20.86809         3.53668        -0.58916
C         22.08308         1.41570        -0.33177
C         22.10058         4.24458        -0.58423
C         20.88173         6.37682        -0.89053
C         20.87871         7.79063        -1.08537
C         22.10938         5.66929        -0.73942
C         22.11701         8.49817        -1.08564
C         20.90774        10.66652        -1.24732
C         20.91581        12.10477        -1.19918
C         22.08374         9.93162        -1.13237
C         22.06662        12.82015        -0.88260
C         20.92440        14.98545        -0.81227
C         20.88103        16.41890        -0.65203
C         22.10963        14.25531        -0.70147
C         22.12417        17.15494        -0.33483
C         20.95805        19.30858        -0.58559
C         22.14616        18.63410        -0.45455
C         23.31446         2.10012        -0.31963
C         23.32715         3.53438        -0.44321
C         24.55271         1.40594        -0.20583
C         24.56044         4.24158        -0.41845
C         23.34646         6.37642        -0.74757
C         23.35372         7.79425        -0.92198
C         24.57445         5.66628        -0.55656
C         24.61935         8.46863        -0.92809
C         23.36265        10.66752        -1.12314
C         23.31123        12.06732        -0.62328
C         24.66083         9.93858        -1.08999
C         24.60760        12.78656        -0.40822
C         23.38162        14.92409        -0.47521
C         23.39676        16.38393        -0.24429
C         24.59350        14.25735        -0.44846
C         24.67109        17.11720        -0.33057
C         23.42761        19.27211        -0.31222
C         24.63768        18.56775        -0.25301
C         25.77571         2.08355        -0.16105
C         25.78961         3.53523        -0.23556
C         27.01658         1.37830        -0.12059
C         27.00332         4.23919        -0.14570
C         25.81039         6.36842        -0.52219
C         25.81177         7.77994        -0.73131
C         27.03886         5.65134        -0.28459
C         27.14112         8.48008        -0.92689
C         25.90463        10.67086        -0.72997
C         25.89016        12.07370        -0.57586
C         27.11495         9.97604        -0.67919
C         27.09700        12.80238        -0.50298
C         25.86230        14.95594        -0.43992
C         25.85997        16.41421        -0.40603
C         27.06113        14.24835        -0.47150
C         27.12558        17.11339        -0.25519
C         25.88940        19.25080        -0.14022
C         27.10577        18.56755        -0.09485
C         28.24548         2.04218        -0.01202
C         28.23670         3.51307         0.33389
C         29.47454         1.36745        -0.05719
C         29.52252         4.21997         0.00169
C         28.28133         6.34883        -0.19359
C         28.23792         7.85179        -0.06843
C         29.50751         5.64543        -0.11756
C         29.54438         8.55332        -0.37301
C         28.33115        10.68259        -0.49817
C         28.33693        12.09672        -0.47154
C         29.58275         9.93503        -0.44505
C         29.59395        12.82256        -0.35510
C         28.35395        14.98994        -0.71054
C         28.30790        16.41393        -0.22260
C         29.59701        14.22779        -0.31924
C         29.54240        17.07664         0.32473
C         28.35367        19.25364        -0.01865
C         29.57041        18.56798         0.07397
C         30.71892         2.05747        -0.00203
C         30.72373         3.51536        -0.02855
C         31.93521         1.37288         0.01376
C         31.97932         4.21366        -0.08314
C         30.75997         6.33077        -0.25616
C         30.75006         7.76082        -0.56052
C         31.98388         5.64270        -0.18962
C         32.10870         8.52692        -0.47190
C         30.83863        10.66280        -0.36650
C         30.82427        12.09677        -0.28241
C         32.05212         9.97143        -0.24059
C         32.06476        12.80525        -0.18566
C         30.81742        14.94862        -0.15321
C         30.82670        16.36386        -0.00791
C         32.05586        14.23160        -0.11862
C         32.04039        17.07333         0.07342
C         30.80819        19.23138         0.11053
C         32.03778        18.53126         0.18042
C         33.18892         2.05337         0.04054
C         33.20355         3.50791        -0.02077
C         34.38127         1.34344         0.19054
C         34.43975         4.21619         0.02922
C         33.24317         6.36114        -0.09204
C         33.27315         7.75528        -0.07583
C         34.47169         5.61471         0.06246
C         34.46043         8.48899         0.49218
C         33.30689        10.65742        -0.06286
C         33.30260        12.10292        -0.11426
C         34.48863         9.94350         0.10723
C         34.52842        12.82152         0.00074
C         33.28469        14.94591        -0.00811
C         33.27372        16.37561         0.05978
C         34.51022        14.22404         0.04552
C         34.51285        17.09210         0.28566
C         33.25411        19.22076         0.30334
C         34.49861        18.54880         0.39581
C         35.65124         2.00166         0.29096
C         35.72407         3.44405        -0.16187
C         36.77499         1.32177         0.66885
C         36.94833         4.17612         0.32277
C         35.73374         6.34046         0.17725
C         35.75452         7.74238         0.26585
C         36.96188         5.60832         0.30200
C         36.98505         8.44891         0.39571
C         35.80642        10.62398        -0.12709
C         35.78401        12.10384         0.16757
C         37.00646         9.88660         0.42399
C         36.95152        12.77022         0.47483
C         35.80776        14.97275        -0.03393
C         35.69458        16.39661         0.43036
C         37.00074        14.21157         0.49825
C         36.91361        17.11175         0.83875
C         35.71179        19.25032         0.49483
C         36.95509        18.57792         0.65164
C         38.05661         2.01293         1.02946
C         38.09597         3.47112         0.63662
C         39.32151         1.29117         0.63022
C         39.35128         4.15121         0.76002
C         38.17672         6.30184         0.54990
C         38.19741         7.72955         0.57323
C         39.39477         5.57190         0.72902
C         39.42887         8.42934         0.78268
C         38.17979        10.56373         0.71201
C         38.13643        12.03215         1.06382
C         39.42040         9.85493         0.86314
C         39.45138        12.75132         0.87582
C         38.18785        14.87297         0.73484
C         38.20405        16.34087         0.94148
C         39.45373        14.16477         0.82222
C         39.46577        17.07555         0.77681
C         38.18863        19.21716         0.67796
C         39.43346        18.49635         0.70901
C         40.49841         1.95328         0.63197
C         40.55952         3.39871         0.81169
C         41.77823         4.08358         0.91789
C         40.64124         6.25040         0.88388
C         40.65274         7.70604         0.92973
C         41.81457         5.47824         0.98664
C         41.83616         8.43613         1.13731
C         40.64768        10.56659         1.01236
C         40.66237        12.03203         0.94155
C         41.83364         9.82941         1.16132
C         41.87051        12.76318         0.90078
C         40.67802        14.89053         0.78492
C         40.68460        16.36018         0.69936
C         41.87564        14.15056         0.82492
C         41.87943        17.09510         0.57293
C         40.66113        19.19342         0.59516
C         41.85981        18.49413         0.52831
O          9.02934         2.94515         2.06201
O         37.43986        16.69550         2.16423
O         31.51970         8.11546        -1.74536
O         18.94123        15.07899        -2.29742
O          6.41188        12.26352        -1.88296
O          6.37190        14.90881        -1.79406
O         22.63193        16.73396         0.99020
O         23.82812        12.23034         0.74025
O         24.11994        10.45791        -2.37381
O          9.25500        14.99254        -1.87728
O         15.91810         6.34987        -2.97634
H         15.97335         5.39205        -3.22385
O         36.10141        15.09006        -1.49087
H         35.28864        15.42842        -1.92525
O         35.99270        10.55172        -1.59765
H         36.76892        11.10741        -1.82509
O         28.15072         3.56243         1.81187
H         27.34368         3.06623         2.06786
O         18.62419        16.03810         1.19362
H         18.90695        16.85518         1.65594
O          3.02848        12.59429         2.28904
H          2.38863        12.94065         2.94495
O         12.35848         0.09687         0.03153
H         12.47973         0.27774         0.98605
O         14.87599        16.90883         1.69086
H         15.74404        17.27759         1.96003
O         14.53610        14.02128        -2.12707
H         14.45183        14.89620        -2.56050
O          8.61483        15.76682         1.58968
H          8.58375        16.52878         2.20764
O         37.89204        12.04988         2.51805
H         37.89342        12.98864         2.80403
O          5.09464         8.84858         2.34689
H          5.19366         7.96706         2.76736
O          2.08876         8.18534        -0.98038
H          2.01324         7.21095        -1.07184
O         14.82628        12.94459         1.35434
H         15.08964        12.05334         1.69223
O         19.59511        12.72799        -3.05587
H         19.08293        13.51573        -3.36225
O         29.42361        16.93199         1.79313
H         28.63507        17.44599         2.07118
O         38.07107         2.01485         2.50842
H         38.91367         2.43382         2.78661
O         16.13794        10.49649         1.21341
H         17.05800        10.75923         1.43633
O         27.88579         8.14163         1.31740
H         28.46645         7.61012         1.90112
O         19.55011         9.96430        -3.07350
H         19.55399        10.91528        -3.35233
O         27.51688         8.27405        -2.31311
H         26.84001         8.69975        -2.88028
O         35.89593         3.37464        -1.62453
H         35.09220         2.94881        -1.99185
O          2.82949        12.23725        -1.34714
H          3.43876        11.82028        -1.99358
O         28.46805        15.10073        -2.18757
H         27.66220        15.56024        -2.50789
O         19.47529        18.72680        -2.34108
H         18.73439        18.13611        -2.59719
O         13.16910         6.39386        -2.73984
H         14.05285         6.58637        -3.14708
O         15.93050         3.42898        -2.79373
H         16.67152         2.84104        -3.05618
O          4.97001        18.25329         2.53080
H          4.13339        17.81554         2.79892
O         34.26443         8.48892         1.96542
H         34.37006         7.56357         2.27464
O          2.95629        15.05095        -1.40621
H          2.80800        14.11137        -1.68197
H          0.47091         1.58480         1.99137
H          0.38378         4.03755         1.75321
H          2.63841         0.36421         1.80880
H          0.43628         5.99142         1.98499
H          0.30843         8.35428         1.41535
H          0.20193        10.16900         0.60589
H          0.20006        12.58421         1.00995
H          0.45176        14.50593         1.73340
H          0.33548        16.97488         1.43020
H          1.47663        19.16387         0.76708
H          5.04813         0.38312         1.41793
H          3.64866        20.36156         0.86963
H          7.38982         0.35348         0.78123
H          6.16385        20.31213         0.85878
H          9.89059         0.33444         0.19442
H          8.58227        20.29416         0.46941
H         11.92645         1.09419        -1.70923
H         11.02123        20.31151         0.20709
H         14.66950         0.33968        -0.49536
H         13.47859        20.33883         0.00398
H         17.13379         0.34812        -0.35989
H         15.95245        20.36175        -0.09107
H         19.60032         0.32818        -0.36591
H         18.40110        20.35601        -0.24710
H         22.07520         0.31939        -0.23946
H         20.95860        20.40858        -0.63763
H         24.54315         0.30698        -0.15172
H         23.45894        20.37223        -0.28673
H         27.00309         0.28247        -0.22649
H         25.88807        20.34929        -0.07407
H         29.48228         0.27215        -0.17053
H         28.35741        20.35333        -0.06979
H         31.93436         0.27259         0.03547
H         30.82668        20.33203         0.08468
H         34.33958         0.25330         0.33958
H         33.23993        20.31976         0.36037
H         36.69608         0.25191         0.92165
H         35.70089        20.34998         0.45291
H         39.29017         0.20187         0.47885
H         38.22884        20.31405         0.59640
H         41.44302         1.41810         0.44937
H         42.71863         3.51430         0.94795
H         42.79103         5.97037         1.09155
H         42.79260         7.91329         1.27181
H         42.79181        10.34694         1.30339
H         42.83535        12.23982         0.93216
H         42.84463        14.66683         0.80270
H         42.84795        16.58068         0.51805
H         40.65638        20.29175         0.54841
H         42.80757        19.04292         0.43610
