         244
 CSIRO Nanostructure Databank - Neutral Graphene Oxide Data Set
C          1.50393         2.41279         1.67219
C          1.46282         3.78491         1.42671
C          2.60745         1.65131         1.29050
C          2.52637         4.44104         0.75629
C          1.32760         6.64292         0.61219
C          1.32861         7.98879         0.35304
C          2.48046         5.82799         0.41921
C          2.64184         8.68475         0.12562
C          1.51408        10.93435         0.24731
C          1.44131        12.32458         0.00941
C          2.58264        10.15514        -0.25015
C          2.37324        12.96931        -0.76710
C          1.09337        15.09165        -0.47083
C          1.15828        16.19681         0.30539
C          2.30302        14.44814        -1.09332
C          2.40980        16.86948         0.54376
C          2.45895        18.05187         1.32062
C          3.72439         2.27257         0.68244
C          3.69242         3.66826         0.41329
C          4.89097         1.51052         0.33793
C          4.87382         4.30445        -0.10065
C          3.50834         6.32037        -0.57567
C          3.56377         7.84614        -0.74973
C          4.86924         5.68561        -0.43080
C          4.83470         8.52838        -1.16449
C          3.62498        10.76392        -0.94692
C          3.57105        12.23474        -1.29429
C          4.87373        10.04082        -1.40213
C          4.87354        12.96706        -0.95255
C          3.61956        15.08895        -0.66468
C          3.60978        16.32141        -0.01029
C          4.88220        14.38829        -0.86563
C          4.83650        17.14453         0.05167
C          3.65086        18.70294         1.58837
C          4.88490        18.26958         1.01761
C          6.03957         2.12430        -0.10561
C          6.07132         3.55199        -0.24805
C          7.23702         1.32173        -0.55357
C          7.30206         4.23554        -0.45746
C          6.06842         6.35722        -0.73582
C          6.10687         7.78893        -0.96513
C          7.31201         5.64891        -0.60717
C          7.28142         8.49261        -0.72485
C          6.03675        10.75044        -0.78574
C          6.05279        12.17382        -0.80232
C          7.23929         9.96117        -0.32150
C          7.28544        12.88193        -0.67816
C          6.12806        15.08949        -0.76821
C          6.14864        16.55435        -0.47561
C          7.32422        14.29305        -0.78783
C          7.37569        17.27150        -0.01654
C          6.08831        18.85730         1.37864
C          7.34909        18.37286         0.89409
C          8.54747         2.05985        -0.36816
C          8.54248         3.51160        -0.36619
C          9.71728         1.34957        -0.34739
C          9.74273         4.23017        -0.33601
C          8.54589         6.37056        -0.59267
C          8.54045         7.79592        -0.57961
C          9.77677         5.65510        -0.44756
C          9.78419         8.48950        -0.42616
C          8.54410        10.64626        -0.68347
C          8.55463        12.13961        -0.74622
C          9.81320         9.92416        -0.38519
C          9.80773        12.85072        -0.46446
C          8.61426        14.84651        -1.04054
C          8.63581        16.91866        -0.51144
C          9.83658        14.21965        -0.64837
C          9.84624        17.28951         0.07445
C          8.56864        18.97022         1.29552
C          9.83523        18.43179         0.94411
C         10.99874         2.00136        -0.06224
C         10.99901         3.52105        -0.07564
C         12.29584         1.30791        -0.25541
C         12.25364         4.23971        -0.31727
C         11.01431         6.35311        -0.34530
C         11.02004         7.77512        -0.32388
C         12.26675         5.62142        -0.33027
C         12.26526         8.48233        -0.19692
C         10.99708        10.62106        -0.20464
C         10.96174        12.09755         0.13288
C         12.25215         9.91856        -0.10010
C         12.26852        12.82290        -0.05907
C         11.08366        15.01348        -0.44684
C         11.08474        16.51564        -0.16370
C         12.29709        14.22325        -0.08955
C         12.26176        16.98941         0.66999
C         11.07013        19.08067         1.24524
C         12.30786        18.49450         0.84286
C         13.46773         1.98950        -0.35706
C         13.51175         3.47759        -0.62816
C         14.74947         1.30058        -0.30591
C         14.70628         4.18211        -0.02746
C         13.53549         6.34930        -0.29232
C         13.50718         7.77536        -0.18327
C         14.75247         5.65498        -0.18170
C         14.75342         8.45437        -0.00054
C         13.45307        10.63830         0.03605
C         13.47407        12.07155        -0.00260
C         14.74491         9.92728         0.34555
C         14.71652        12.76612        -0.07059
C         13.53543        14.90335         0.09823
C         13.56001        16.34623         0.26039
C         14.73533        14.16693         0.03946
C         14.72237        17.06607         0.23705
C         13.49278        19.18964         0.70450
C         14.67805        18.56032         0.01012
C         15.92437         1.94895        -0.09491
C         15.97114         3.41899         0.12845
C         17.17052         1.19118         0.25894
C         17.26523         4.14954         0.04920
C         16.01065         6.32554        -0.07210
C         15.96117         7.75824         0.00500
C         17.25767         5.60446        -0.01486
C         17.23717         8.53147         0.23028
C         15.95506        10.67108        -0.17221
C         15.94974        12.02909        -0.27564
C         17.17177         9.86937        -0.54955
C         17.20364        12.76215        -0.72032
C         16.02937        14.85965         0.17788
C         16.01921        16.37757         0.28919
C         17.24361        14.22838        -0.34371
C         17.25067        17.09840        -0.04587
C         16.00935        19.22154         0.24244
C         17.21006        18.55602         0.04079
C         18.46197         1.91342        -0.15799
C         18.42937         3.42361         0.01929
C         19.60379         1.27485         0.60002
C         19.77421         4.09594         0.00740
C         18.52555         6.30548        -0.05426
C         18.47721         7.75901        -0.17924
C         19.74014         5.60229         0.13318
C         19.53654         8.51709        -0.60614
C         18.45371        10.64512        -0.35031
C         18.42800        12.10993        -0.06014
C         19.62765         9.95891        -0.41985
C         19.71556        12.78213        -0.45424
C         18.41315        14.94525        -0.45797
C         18.40975        16.39337        -0.32237
C         19.67383        14.21995        -0.92786
C         19.62720        17.16215        -0.66787
C         18.45703        19.25567        -0.01401
C         19.65545        18.60560        -0.33793
C         20.60985         1.98781         1.15181
C         20.72149         3.41519         0.98321
C         21.77147         4.11525         1.53226
C         21.01451         6.20473         0.49315
C         21.31096         7.57781         0.11297
C         21.96243         5.48287         1.21496
C         22.01519         8.55302         0.77346
C         20.90722        10.62129        -0.14559
C         20.91685        12.08639        -0.34201
C         21.97368         9.95257         0.42125
C         22.13931        12.81691        -0.40131
C         20.96532        14.95136        -0.64069
C         20.97758        16.41836        -0.79923
C         22.13131        14.21999        -0.45207
C         22.17780        17.22313        -0.58119
C         20.88605        19.29108        -0.38667
C         22.10952        18.59646        -0.48499
O          8.67731        16.07680        -1.65037
O          3.80556         8.08767        -2.16169
O         11.37627        16.02539        -1.48966
O         20.17331        16.84066        -1.98172
O         15.13529         3.77584         1.30964
O         16.17877        15.51991         1.48087
O          8.59726        11.26682        -1.99090
O         20.69759         7.91556        -1.11266
O          5.31916        17.42481        -1.30750
O         10.98718         2.76583         1.20306
O         13.71905         3.60227        -2.07723
H         12.98542         3.13932        -2.53341
O         17.36439         8.81828         1.64447
H         16.48872         9.16200         1.96146
O         20.35863         3.82224        -1.33255
H         21.21358         4.30331        -1.37479
O          2.16167        14.62547        -2.52782
H          2.74418        13.96091        -2.97027
O         18.24617        12.28961         1.38256
H         18.93650        11.76269         1.83804
O         19.55986        14.16889        -2.41172
H         19.68039        15.10493        -2.71373
O         14.43105        18.72537        -1.44138
H         13.57546        18.29095        -1.64943
O         10.70254        12.13906         1.58951
H         11.39529        11.59684         2.02437
O         17.05849         9.55361        -1.96292
H         17.05467        10.41500        -2.44210
O         14.86952         9.97210         1.83497
H         14.94281        10.91858         2.08766
O          2.98744         5.76483        -1.83354
H          3.32707         6.34644        -2.55438
O          7.06868         1.00336        -1.95408
H          6.91271         1.84109        -2.43707
O          7.24042         9.93230         1.14817
H          6.41692         9.48931         1.44411
O         18.64055         1.66604        -1.57644
H         19.37045         2.25880        -1.87666
O         11.98311        16.44602         2.00215
H         12.71374        16.71905         2.59633
O          5.02543        10.18828        -2.86884
H          4.44027         9.51006        -3.27831
O         17.30308        12.59585        -2.15449
H         18.08766        13.12011        -2.46908
O         17.16637         1.01823         1.69083
H         16.76277         1.81295         2.09910
O          3.56217        12.35978        -2.76222
H          4.24336        11.70944        -3.09656
O          3.36327         8.65154         1.41663
H          2.76600         9.02677         2.09830
H          0.65212         1.92682         2.16856
H          0.57438         4.35319         1.73425
H          2.62965         0.56975         1.48549
H          0.39222         6.17600         0.95731
H          0.39611         8.56078         0.45062
H          0.69595        10.45871         0.80348
H          0.58681        12.88045         0.42218
H          0.11366        14.66785        -0.73629
H          0.24129        16.64313         0.71919
H          1.52333        18.43261         1.75543
H          4.86483         0.41758         0.46366
H          3.65872        19.58240         2.24844
H          7.27361         0.34439        -0.01115
H          6.08412        19.69401         2.09277
H          9.70163         0.26140        -0.51241
H          8.53015        19.85986         1.94125
H         12.31193         0.21075        -0.15430
H         11.05227        20.10718         1.64030
H         14.74013         0.19963        -0.34043
H         13.50351        20.27788         0.87461
H         17.16473         0.17235        -0.20194
H         16.02341        20.31594         0.36275
H         19.57704         0.18140         0.71478
H         18.46388        20.34439         0.14427
H         21.40116         1.47867         1.72448
H         22.50004         3.60005         2.17489
H         22.88489         5.98615         1.53742
H         22.61822         8.27481         1.65096
H         22.81907        10.55861         0.78600
H         23.10054        12.29010        -0.33481
H         23.09360        14.74501        -0.36391
H         23.14799        16.72122        -0.46560
H         20.89612        20.37726        -0.21977
H         23.04379        19.16843        -0.38926
