         490
 CSIRO Nanostructure Databank - Neutral Graphene Oxide Data Set
C         39.72141        49.68152         6.14549
C         38.86767        50.40101         6.91742
C         39.49222        52.50345         5.83294
C         38.72195        51.82103         6.73590
C         41.68331        48.13439         4.38329
C         41.51200        49.59744         4.25097
C         40.50319        50.34929         5.08951
C         41.33572        52.49558         4.15621
C         40.50553        51.83859         5.06358
C         40.96370        53.75043         3.57810
C         43.93222        48.26829         3.38344
C         42.77534        47.51270         3.91300
C         43.75988        49.73222         3.16004
C         42.63976        50.36013         3.65654
C         43.33326        52.45491         2.55533
C         42.66734        51.87145         3.78312
C         42.69872        53.47525         1.89517
C         41.56929        54.18439         2.42795
C         45.83593        45.58370         1.37715
C         44.98006        46.11734         2.30261
C         45.97795        48.37282         1.85302
C         45.04305        47.54362         2.63107
C         45.93059        49.77088         1.96103
C         44.81797        50.48750         2.49510
C         45.64120        52.63831         1.51017
C         44.61824        51.87215         2.14863
C         45.52036        53.96906         0.94453
C         44.27853        54.57480         0.62380
C         45.29747        56.69260         0.06430
C         44.16211        55.90486         0.21038
C         47.85887        44.26379        -0.39988
C         47.80717        45.76675        -0.28554
C         46.87534        46.35218         0.76914
C         48.05835        48.53040         0.50957
C         46.97773        47.72954         1.05223
C         48.18464        49.87749         0.80594
C         47.11945        50.53819         1.57251
C         48.12495        52.76533         0.83583
C         46.99606        52.05745         1.47381
C         47.99501        54.17931         0.62156
C         46.69569        54.76138         0.63708
C         47.76944        56.93029        -0.01083
C         46.57862        56.13476         0.23889
C         47.67484        58.26214        -0.45486
C         50.18351        44.37105        -1.21545
C         48.95144        43.64945        -0.89685
C         50.28240        45.70112        -0.93461
C         49.20782        46.36264        -0.09462
C         50.33563        48.65507        -0.63561
C         49.10540        47.86692        -0.28950
C         50.44424        50.05941        -0.21893
C         49.33212        50.65836         0.39426
C         50.46915        52.86119        -0.01646
C         49.29943        52.08526         0.53730
C         50.46803        54.27340         0.51269
C         49.15380        54.96446         0.35610
C         50.30785        57.13430        -0.10539
C         49.06542        56.33904         0.14921
C         50.09223        58.60523        -0.31762
C         48.81337        59.06781        -0.59806
C         52.70038        41.57247        -1.50288
C         51.52340        42.21686        -1.33214
C         52.61883        44.36857        -2.14550
C         51.35989        43.61826        -1.74832
C         52.60156        45.89842        -2.11007
C         51.55482        46.44304        -1.13528
C         52.69658        48.73681        -1.59523
C         51.59885        47.91758        -0.93004
C         52.84187        50.07574        -0.88853
C         51.71324        50.74307        -0.37183
C         53.02441        52.78560         0.11735
C         51.79808        52.13185         0.01866
C         53.11582        54.26240         0.64145
C         51.74783        55.02508         0.60254
C         52.97259        57.19519         0.04295
C         51.66957        56.46671         0.12272
C         53.08320        58.57312         0.11882
C         51.18373        59.54795        -0.24019
C         52.76079        61.28555        -1.03708
C         51.48200        60.64157        -1.02612
C         55.18984        40.07718        -1.93897
C         55.13058        41.51244        -2.04489
C         53.90905        42.24411        -1.93094
C         55.13497        44.36165        -2.21480
C         53.91077        43.64941        -2.11226
C         55.18606        45.83210        -2.15219
C         53.94660        46.57746        -1.89071
C         55.23711        48.71013        -1.95747
C         53.97334        47.92732        -1.69113
C         55.29756        50.06544        -1.28713
C         54.10567        50.72024        -0.83587
C         55.52971        52.48993        -0.04959
C         54.20453        52.00540        -0.19898
C         55.53226        54.60339         0.06263
C         54.23388        55.08327         0.00028
C         55.32197        57.18312        -0.71652
C         54.13938        56.46773        -0.31403
C         55.30840        58.59881        -0.80178
C         54.16445        59.31882        -0.42134
C         55.22830        61.46240        -1.09252
C         54.00350        60.73032        -0.74000
C         55.20363        62.86113        -1.27446
C         57.62203        40.02345        -2.25381
C         56.37054        39.38118        -1.98897
C         57.57049        41.46563        -2.50662
C         56.33612        42.22807        -2.24138
C         57.62166        44.41521        -1.96813
C         56.34683        43.63820        -2.22135
C         57.63285        45.75626        -2.69552
C         56.38274        46.50471        -2.25409
C         57.74042        48.68801        -2.02282
C         56.49262        47.89193        -1.66398
C         57.74463        50.04069        -1.78298
C         56.53624        50.71685        -1.30383
C         57.79725        52.89451        -1.05093
C         56.63318        52.04863        -0.79480
C         57.78361        54.31301        -1.03299
C         56.62238        55.13148        -0.69067
C         57.57456        57.07303        -1.97566
C         56.51132        56.47288        -1.06993
C         57.52197        58.64213        -2.08867
C         56.61979        59.30086        -1.01858
C         57.58431        61.47580        -1.76827
C         56.44546        60.77775        -1.31187
C         57.52573        62.87492        -1.97820
C         56.32983        63.55099        -1.71066
C         60.08871        37.21542        -2.40150
C         58.92954        37.90068        -2.25825
C         60.09798        40.08611        -2.36309
C         58.85691        39.34776        -2.35028
C         60.10803        41.46736        -2.16934
C         58.91987        42.24166        -2.45263
C         60.10657        44.37586        -2.00637
C         58.90146        43.67430        -2.17246
C         60.08047        45.85501        -2.09866
C         58.92845        46.51734        -2.43532
C         60.24331        48.75128        -2.74861
C         58.86214        48.00072        -2.77502
C         60.18626        50.15839        -2.15939
C         58.97641        50.82066        -1.85288
C         60.19459        52.94233        -1.64757
C         58.97991        52.20809        -1.52012
C         60.19367        54.36626        -1.57336
C         58.96122        55.06240        -1.42574
C         60.12887        57.18339        -1.86588
C         58.92826        56.46492        -1.65290
C         60.11158        58.63507        -2.06026
C         58.87002        59.34642        -2.05035
C         60.04782        61.52361        -2.04141
C         58.83640        60.74824        -1.98569
C         60.01099        62.89457        -2.10208
C         58.74004        63.57972        -2.54083
C         59.93232        65.74757        -2.10015
C         58.78113        65.06881        -2.33138
C         62.84645        35.73493        -2.55558
C         62.68820        37.18452        -2.84946
C         61.33946        37.92390        -2.72185
C         62.56237        40.08764        -2.39011
C         61.37232        39.38011        -2.46155
C         62.55686        41.60139        -2.48336
C         61.33952        42.16554        -1.65051
C         62.54254        44.37233        -1.36468
C         61.29297        43.66602        -1.74483
C         62.52701        45.86335        -1.62614
C         61.35039        46.56834        -1.93995
C         62.61777        48.66485        -1.96904
C         61.40614        47.97614        -2.13679
C         62.68051        50.12246        -2.06422
C         61.41112        50.84815        -2.06295
C         62.64018        52.99093        -1.94159
C         61.41678        52.25586        -1.88819
C         62.64917        54.37349        -1.85890
C         61.40529        55.09375        -1.76059
C         62.64292        57.22792        -2.23607
C         61.37051        56.49738        -1.85942
C         62.57535        58.68125        -1.87167
C         61.33907        59.34614        -2.04259
C         62.53370        61.55726        -1.73838
C         61.35884        60.82526        -2.34050
C         62.48452        62.92542        -1.69595
C         61.30692        63.65111        -2.30420
C         62.26646        65.80443        -1.28719
C         61.20841        65.10875        -1.89469
C         62.19775        67.21464        -0.99443
C         64.79866        35.72572        -0.93483
C         63.74684        35.11059        -1.74560
C         65.25735        37.02185        -1.30658
C         63.84371        38.06675        -2.65919
C         65.10682        40.06083        -1.84877
C         63.82475        39.39917        -2.35124
C         64.95662        41.56068        -1.64166
C         63.83220        42.26091        -2.05193
C         65.00772        44.40579        -1.44157
C         63.80709        43.76339        -2.07430
C         64.98899        45.81151        -1.30533
C         63.76542        46.54138        -1.54077
C         65.06416        48.63198        -1.49851
C         63.81923        47.95558        -1.65940
C         65.20125        50.06218        -1.95198
C         63.87689        50.78780        -1.97507
C         64.97117        52.91023        -1.17131
C         63.96123        52.28266        -2.13885
C         65.07958        54.38636        -1.48461
C         63.92767        55.09389        -1.78862
C         65.02976        57.25801        -1.40687
C         63.91205        56.53254        -1.79962
C         64.95280        58.68038        -1.16836
C         63.73940        59.38057        -1.46923
C         64.80682        61.47205        -0.78518
C         63.70369        60.81135        -1.32459
C         64.83878        62.93940        -0.75112
C         63.64615        63.71023        -1.25324
C         64.37612        65.73242         0.00486
C         63.44896        65.11631        -0.81827
C         64.28259        67.14440         0.30063
C         63.17280        67.85290        -0.28329
C         65.56160        33.34500         1.85483
C         64.89281        33.91415         0.82884
C         66.24668        35.97422         1.02137
C         65.31616        35.18825         0.26186
C         66.38124        37.37541         0.76165
C         65.79113        37.93727        -0.41394
C         66.79235        40.17031         0.04366
C         65.57983        39.45046        -0.48615
C         67.07646        41.47593        -0.32384
C         66.09931        42.22244        -1.09271
C         67.26867        44.34139        -0.51802
C         66.13242        43.65836        -1.02574
C         67.31909        45.75336        -0.53569
C         66.17263        46.50925        -0.96214
C         67.45477        48.64855        -0.86529
C         66.21590        47.93560        -1.09886
C         67.49160        50.05024        -0.85430
C         66.32410        50.81245        -1.24620
C         67.46777        52.93453        -0.67395
C         66.29269        52.18367        -1.10445
C         67.51188        54.33240        -0.76842
C         66.37033        55.05712        -1.35132
C         67.46456        57.28914        -0.59474
C         66.34025        56.59512        -1.26588
C         67.28342        58.67707        -0.26962
C         66.05426        59.35739        -0.58449
C         66.95785        61.45095         0.41383
C         65.94768        60.76107        -0.30135
C         66.79736        62.86099         0.73917
C         65.75832        63.57707         0.19203
C         66.66367        65.72434         1.06110
C         65.39423        64.91467         0.78095
C         66.33110        67.02373         1.80803
C         65.26256        67.80682         1.06994
C         66.33496        69.87724         1.82366
C         65.26916        69.21956         1.25822
C         67.25952        32.04881         3.95403
C         67.37218        33.41606         3.65526
C         66.88956        33.91215         2.30791
C         67.70523        36.21595         2.96596
C         66.90648        35.41766         2.15891
C         67.99653        37.56645         2.58794
C         67.27679        38.14964         1.53485
C         68.87919        40.05147         1.42606
C         67.41481        39.63570         1.31313
C         69.06939        41.52771         1.15373
C         68.21780        42.16286         0.26634
C         69.50805        44.31102         0.62550
C         68.52070        43.55447        -0.22548
C         69.58871        45.72508         0.48259
C         68.51503        46.43398        -0.17019
C         69.81523        48.62540         0.13257
C         68.63358        47.85484        -0.48616
C         69.70892        50.06568         0.25893
C         68.62704        50.76703        -0.28916
C         69.86847        52.89254        -0.01325
C         68.61730        52.19839        -0.23344
C         69.97030        54.28419        -0.32300
C         68.68828        55.10016        -0.18076
C         69.79695        57.44145         0.05994
C         68.68234        56.63105        -0.38558
C         69.57632        58.75534         0.58786
C         68.30813        59.38019         0.41194
C         69.12211        61.40265         1.59318
C         68.12700        60.74935         0.82887
C         68.79602        62.70043         2.30964
C         67.76318        63.53719         1.60290
C         68.78420        65.62615         2.45031
C         67.72573        64.90308         1.77183
C         68.74556        67.05964         2.54678
C         67.59085        67.80106         2.12634
C         68.70552        69.93163         2.67643
C         67.54489        69.19458         2.21255
C         68.72434        71.34751         2.70925
C         68.36819        32.37904         6.07182
C         67.74810        31.53057         5.15244
C         68.50784        33.73395         5.77474
C         68.03630        34.26531         4.56216
C         69.49544        36.34906         4.68322
C         68.15105        35.75985         4.33213
C         69.87260        37.56009         4.20473
C         69.10871        38.27540         3.20315
C         70.61823        40.25289         3.19857
C         69.52709        39.52082         2.68632
C         70.95312        41.52092         2.71856
C         70.19200        42.20024         1.74636
C         71.48435        44.33332         2.03684
C         70.41731        43.61244         1.45067
C         71.60591        45.70667         1.84799
C         70.66099        46.42702         1.10558
C         72.01038        48.60978         1.20547
C         70.65790        47.93456         1.18567
C         72.06223        49.94386         1.10898
C         70.80629        50.79330         1.00548
C         72.28981        52.71407         0.20055
C         71.02327        52.14943         0.35955
C         72.41341        53.99224        -0.33979
C         71.26602        54.77562        -0.53035
C         72.21415        57.82341         0.40211
C         71.15759        57.07871        -0.11856
C         71.95190        58.98371         1.13247
C         70.64453        59.48559         1.20179
C         71.34073        61.43398         2.60877
C         70.36597        60.77011         1.82942
C         71.18125        62.77033         3.00204
C         70.01602        63.48561         2.72921
C         70.99863        65.64763         3.48797
C         69.92428        64.91312         2.91446
C         70.97125        67.02345         3.56151
C         69.86433        67.76826         3.07901
C         70.97212        69.95168         3.59295
C         69.85405        69.21627         3.12325
C         70.96291        71.33607         3.61859
C         69.83160        72.03989         3.17146
O         64.83954        63.55443        -2.10503
O         55.78201        53.49882         0.87602
O         49.28422        48.37984        -1.64034
O         47.49901        51.40839         2.69462
O         71.50806        56.06236        -1.00536
O         61.89605        37.51122        -4.03076
O         66.75628        55.90723        -2.48910
O         45.15959        47.88140         4.08397
O         43.09504        53.83293         0.59365
O         51.68646        43.85566        -3.16722
O         69.89111        48.12941        -1.22601
O         65.07815        37.39633        -2.64817
O         52.07113        47.01966         0.12956
O         61.49028        60.89012        -3.77019
O         58.25705        41.88563        -3.72032
O         52.08156        59.26574         0.80862
O         40.17623        49.89892         3.68970
O         51.06830        56.51177        -1.22986
O         69.51957        39.31120         0.27713
O         51.01770        54.64193         1.82396
O         68.41518        55.05555         1.28387
H         68.61270        54.14452         1.59518
O         70.36019        51.05006         2.37476
H         70.11352        50.16599         2.74362
O         57.53571        45.48441        -4.10723
H         57.79599        46.31022        -4.58054
O         58.69989        63.39796        -3.99703
H         59.62655        63.55653        -4.31174
O         66.64504        40.26685         2.39344
H         66.91051        39.83780         3.23614
O         64.39210        52.78168         0.16490
H         65.02290        53.16654         0.80878
O         61.53139        41.75564        -0.27498
H         62.22399        42.34505         0.11326
O         53.47895        54.14568         2.03182
H         52.64447        53.99749         2.53521
O         62.24767        41.93962        -3.85480
H         62.88922        41.48449        -4.43832
O         64.50483        39.71019         0.46496
H         64.91334        39.81475         1.35638
O         57.27551        56.52698        -3.29144
H         56.77424        57.23042        -3.77374
O         69.19102        43.36956        -1.53512
H         69.37133        44.26401        -1.89685
O         65.77641        66.68251         3.12815
H         65.54584        67.52577         3.57253
O         57.57447        44.77852        -0.53458
H         57.55935        43.94915        -0.01100
O         61.49821        63.58535        -3.76132
H         61.59812        62.59612        -3.96706
O         67.19703        66.09966        -0.23009
H         68.02241        66.60801        -0.08493
O         47.32217        46.24693        -1.57045
H         46.43912        45.85595        -1.73345
O         67.18180        36.38347         5.25563
H         67.39617        36.06771         6.15908
O         55.22713        48.95822        -3.40000
H         54.31771        49.26674        -3.62716
O         66.15639        39.89527        -2.81851
H         66.18696        38.93947        -3.05663
O         56.54813        47.66033        -0.22356
H         57.02362        46.81021        -0.07488
O         62.79360        44.15346         0.06558
H         62.10301        44.63594         0.56779
O         64.71662        64.54549         2.01662
H         64.88075        65.25450         2.68668
O         56.91196        58.98163        -3.36453
H         57.60325        59.32959        -3.96620
O         67.88179        33.41265         1.34569
H         67.62666        33.74995         0.46066
O         52.16207        46.34762        -3.42751
H         51.69400        45.58051        -3.84344
O         60.67760        48.95551        -4.12200
H         59.91161        48.73019        -4.70327
O         57.35170        59.18104         0.23805
H         56.80309        59.57410         0.94883
O         69.99042        48.25947         2.46001
H         70.43296        47.74233         3.16660
O         62.68355        57.20414        -3.71060
H         62.22915        58.01128        -4.03879
O         50.19789        53.05315        -1.44676
H         50.17787        52.16756        -1.86931
O         52.29303        49.05091        -2.95970
H         52.11442        48.18551        -3.41168
O         63.70297        44.22317        -3.44706
H         64.43066        43.81574        -3.96050
O         43.51848        52.13802         4.95354
H         44.42560        51.83300         4.73292
O         70.90771        39.70488         0.21075
H         70.89365        40.46263        -0.42430
O         68.15956        62.26977         3.57866
H         68.82754        61.74423         4.06892
O         49.59922        46.13931         1.28166
H         50.54275        46.41536         1.36435
O         58.35496        48.05521        -4.16985
H         57.51051        48.56213        -4.17160
O         64.44459        52.56241        -3.47495
H         63.83997        52.13879        -4.11819
O         65.65473        49.97111        -3.35100
H         64.99131        49.44005        -3.84076
H         39.82293        48.59668         6.28825
H         38.27383        49.90411         7.69758
H         39.39570        53.59613         5.75975
H         37.99694        52.36170         7.35975
H         40.84675        47.55038         4.79247
H         40.07080        54.27328         3.94924
H         42.87510        46.42277         4.01568
H         41.18910        55.05780         1.88240
H         45.75598        44.51239         1.14366
H         44.25063        45.47315         2.81179
H         45.17335        57.73877        -0.24074
H         43.16680        56.31185        -0.00877
H         46.94350        43.67633        -0.23202
H         46.69801        58.72263        -0.64534
H         48.91933        42.56675        -1.08336
H         48.68039        60.13204        -0.84303
H         52.76384        40.51747        -1.20531
H         50.67838        41.68905        -0.86996
H         52.76626        62.27474        -1.52072
H         50.72953        61.00849        -1.74000
H         54.26169        39.50994        -1.79225
H         54.28530        63.42739        -1.06826
H         56.33863        38.29057        -1.86068
H         56.26173        64.63788        -1.85189
H         60.09309        36.11649        -2.37837
H         58.00227        37.33587        -2.08906
H         59.86809        66.84117        -2.00017
H         57.85795        65.64265        -2.49878
H         62.10251        35.09239        -3.05246
H         61.36202        67.81169        -1.38328
H         63.62697        34.02068        -1.63495
H         63.07630        68.93520        -0.12252
H         65.20670        32.39345         2.27751
H         63.98409        33.43923         0.43012
H         66.27498        70.96815         1.92693
H         64.42229        69.82183         0.90075
H         66.78692        31.37152         3.22882
H         67.85534        71.91983         2.35898
H         68.75099        31.98275         7.02248
H         67.64808        30.45817         5.36977
H         69.00126        34.39485         6.50373
H         70.13485        35.83238         5.41485
H         70.82741        37.98869         4.54258
H         71.20534        39.84882         4.03523
H         71.80908        42.02709         3.18549
H         72.22968        43.82124         2.65898
H         72.43516        46.23903         2.33680
H         72.93001        48.01531         1.31494
H         73.03942        50.44152         1.18504
H         73.20118        52.16029         0.45793
H         73.40052        54.42839        -0.53780
H         73.24605        57.49817         0.21851
H         72.79187        59.54291         1.56425
H         72.29260        60.93726         2.83824
H         72.04381        63.26742         3.46752
H         71.87766        65.11975         3.88055
H         71.83155        67.53919         4.00729
H         71.87230        69.42714         3.93944
H         71.84202        71.88489         3.98367
H         69.82677        73.13853         3.18627
