         671
 CSIRO Nanostructure Databank - Neutral Graphene Oxide Data Set
C          6.13104        31.59549        -0.31556
C          5.99961        32.93360        -0.23003
C          8.34341        27.37508         1.20946
C          8.16661        28.86583         1.28624
C          7.40364        29.48209         0.14718
C          8.18637        31.76173         1.05968
C          7.48568        30.95740        -0.07837
C          8.37371        33.16806         0.52613
C          7.17001        33.78338        -0.01144
C          8.40362        35.83855        -0.54868
C          7.18616        35.07065        -0.49542
C          8.43952        37.04639        -1.17960
C         10.76157        23.23003         0.77165
C         10.77862        24.52842         1.16316
C          9.50714        25.22728         1.57727
C         10.79951        27.43269         1.33833
C          9.53086        26.72637         1.33178
C         10.77728        28.92474         1.12020
C          9.48687        29.60172         1.56030
C         10.78004        31.87190         1.47195
C          9.47848        31.09798         1.51222
C         10.84132        33.18572         0.81850
C          9.59365        33.80774         0.44069
C         10.92801        35.71110        -0.45649
C          9.62543        35.29527         0.16904
C         10.98011        37.02428        -1.14527
C          9.71392        37.75280        -1.43373
C         10.91697        39.92552        -1.30644
C          9.75230        39.22309        -1.47337
C         10.94918        41.35305        -1.32696
C         13.08401        18.83273         0.83372
C         13.20194        20.28056         0.62234
C         12.04489        21.02862         0.49947
C         13.20241        23.11756         1.11499
C         12.02719        22.52924         0.31828
C         13.21972        24.63667         1.07976
C         12.03211        25.30065         1.21680
C         13.27005        27.49655         1.33844
C         12.01001        26.75985         1.30391
C         13.26011        28.93709         1.47016
C         12.05290        29.62658         1.53184
C         13.34735        31.79590         1.31266
C         12.08290        31.09323         1.59492
C         13.32341        33.18595         1.03707
C         12.08808        33.80290         0.58721
C         13.30992        35.59485        -0.93478
C         12.08656        35.02742        -0.23354
C         13.41516        37.10295        -0.82325
C         12.23922        37.78257        -0.94387
C         13.43041        39.78384        -1.76111
C         12.23588        39.29404        -0.91016
C         13.40675        41.33719        -1.95827
C         12.16202        42.03287        -1.40162
C         13.39475        44.16371        -1.34629
C         12.19187        43.42994        -1.24428
C         13.40982        45.56227        -1.25282
C         15.74314        14.61926         0.51946
C         15.67714        15.98993         0.49688
C         14.39308        16.61407         0.76111
C         15.94802        19.01086         0.32163
C         14.06152        17.93371         0.39642
C         15.73574        20.33549         0.80493
C         14.50609        20.96267         0.75982
C         15.71401        23.17320         1.44503
C         14.53066        22.48188         0.68025
C         15.78189        24.64144         1.04996
C         14.48512        25.39040         0.97981
C         15.75210        27.51960         1.44390
C         14.49729        26.83594         1.26072
C         15.74809        28.91143         1.62445
C         14.52670        29.64131         1.55550
C         15.82177        31.76585         1.44088
C         14.55279        31.06146         1.44685
C         15.80614        33.19786         1.22710
C         14.58969        33.90372         1.09116
C         15.84383        35.97347         0.51920
C         14.66764        35.33663         1.02124
C         15.85856        37.26058        -0.14118
C         14.67987        37.85112        -0.68932
C         15.91820        39.91793        -1.16630
C         14.70722        39.19387        -1.15032
C         15.92864        41.33177        -1.46077
C         14.68267        42.04896        -1.55954
C         15.86371        44.20522        -1.55706
C         14.65137        43.44468        -1.48013
C         15.86745        45.59900        -1.54020
C         14.61472        46.30489        -1.34766
C         15.80315        48.46888        -1.36937
C         14.60903        47.70021        -1.25556
C         15.75810        49.84807        -1.19673
C         18.15804        10.64935        -1.35066
C         18.13655        11.95910        -0.77099
C         16.99076        12.53274        -0.28514
C         18.26101        14.62506         0.29720
C         17.01191        13.81146         0.51585
C         18.23680        16.03371         0.52534
C         16.96955        16.77046         0.13316
C         18.22665        18.84829         1.08069
C         17.01345        18.20061         0.62835
C         18.21740        20.23603         1.27890
C         16.93183        20.97706         1.49412
C         18.22999        23.17528         0.82960
C         16.98559        22.43482         1.20666
C         18.23570        24.55707         1.58342
C         17.00178        25.39295         1.38783
C         18.29357        27.48925         1.61216
C         17.00969        26.76684         1.49775
C         18.30427        28.94709         1.69058
C         16.99967        29.63278         2.07992
C         18.26064        31.85589         2.05727
C         16.99322        31.10659         1.76222
C         18.26003        33.27709         1.55485
C         17.04802        33.91266         1.19312
C         18.30769        35.92797         0.54850
C         17.06217        35.26004         0.72125
C         18.32466        37.24002        -0.01940
C         17.12849        37.90193        -0.37123
C         18.37835        39.96565        -1.03536
C         17.16172        39.25854        -0.88462
C         18.40471        41.36021        -1.35995
C         17.14606        42.02258        -1.55164
C         18.36894        44.23296        -2.03493
C         17.09143        43.46205        -1.87572
C         18.34805        45.68990        -1.77243
C         17.10127        46.35580        -1.64736
C         18.28752        48.50445        -1.59805
C         17.07134        47.77753        -1.56734
C         18.28891        49.98494        -1.64102
C         16.92331        50.69672        -1.39908
C         18.16176        52.78597        -0.83192
C         16.96490        52.05953        -0.90302
C         18.13445        54.17031        -0.53955
C         20.47000         6.75507        -3.23381
C         20.49261         8.07859        -2.71811
C         19.32261         8.72943        -2.32059
C         20.64507        10.62871        -1.42342
C         19.34676        10.02250        -1.72831
C         20.68448        11.93390        -0.83353
C         19.41947        12.74987        -0.87008
C         20.71756        14.58678         0.27653
C         19.45758        13.97216         0.00618
C         20.67444        15.91090         0.94490
C         19.42355        16.70615         0.82488
C         20.66687        18.82690         1.34787
C         19.45733        18.11554         1.09296
C         20.65157        20.21324         1.52863
C         19.43274        20.97337         1.41107
C         20.63621        23.12970         1.75318
C         19.43845        22.38414         1.30919
C         20.76133        24.59659         1.46880
C         19.48912        25.35179         1.28261
C         20.82382        27.49817         1.28975
C         19.48093        26.81239         1.46173
C         20.78711        28.96251         1.66844
C         19.49250        29.64216         1.62661
C         20.74353        31.82812         1.84236
C         19.49362        31.13751         1.40990
C         20.72450        33.31151         2.05377
C         19.48143        33.97368         1.48007
C         20.74543        36.08703         1.05691
C         19.50228        35.29259         0.98592
C         20.84165        37.34078         0.29864
C         19.63098        37.82354        -0.36581
C         20.91241        40.02779        -0.79097
C         19.66328        39.26625        -0.92247
C         20.89701        41.42207        -1.16184
C         19.64743        42.05133        -1.48431
C         20.91548        44.26322        -1.86637
C         19.65435        43.46294        -1.95231
C         20.84801        45.74421        -1.73060
C         19.55949        46.42232        -1.69954
C         20.80235        48.64479        -1.76820
C         19.52280        47.83596        -1.61138
C         20.73433        50.03305        -1.18226
C         19.51499        50.71536        -1.23931
C         20.64226        52.82805        -0.73093
C         19.44322        52.10933        -0.95058
C         20.58985        54.24919        -0.53201
C         19.32443        54.92433        -0.43515
C         20.48905        57.08072        -0.20399
C         19.29506        56.33116        -0.27913
C         20.47750        58.49917        -0.17545
C         22.90806         4.15355        -4.39769
C         21.68913         4.77110        -4.03257
C         22.84248         7.00396        -3.94670
C         21.63656         6.12873        -3.69546
C         22.94132         8.13302        -2.94581
C         21.78852         8.71476        -2.46256
C         23.14525        10.46008        -1.18958
C         21.82320         9.94264        -1.70752
C         23.14894        11.93602        -0.87607
C         21.90565        12.58064        -0.55736
C         23.22217        14.52765         0.32590
C         21.91433        13.90930         0.02212
C         23.26573        15.94878         0.82557
C         21.97547        16.62528         1.20295
C         23.25054        18.86778         1.10323
C         21.97893        18.11478         1.37522
C         23.14792        20.34096         0.86064
C         21.90455        20.98805         1.35509
C         23.23796        23.11552         1.92468
C         21.93167        22.37974         1.87636
C         23.19875        24.58708         2.35703
C         21.97859        25.34330         1.86772
C         23.17979        27.41024         2.40813
C         21.96340        26.70003         1.91833
C         23.19676        28.90894         2.33064
C         21.93662        29.62799         1.98622
C         23.26031        31.76754         1.92134
C         21.94962        31.09436         2.34575
C         23.23042        33.19139         1.64017
C         22.04023        33.91585         1.61915
C         23.29185        36.03215         1.00709
C         22.04689        35.36460         1.38980
C         23.28285        37.39352         0.60459
C         22.05009        38.03391         0.18274
C         23.34878        40.08587        -0.40706
C         22.08997        39.38040        -0.36949
C         23.37413        41.47472        -0.85870
C         22.12989        42.13559        -1.18973
C         23.31551        44.28096        -1.43699
C         22.15584        43.56141        -1.45064
C         23.35184        45.77926        -1.55803
C         22.00715        46.45875        -1.51462
C         23.06968        48.52229        -0.64957
C         21.99836        47.88542        -1.27722
C         23.16075        49.98177        -0.52486
C         21.93768        50.70284        -0.78642
C         23.10999        52.83450        -0.45544
C         21.89431        52.12075        -0.65376
C         23.08891        54.31663        -0.73439
C         21.78774        55.00186        -0.40175
C         22.99535        57.15713         0.10968
C         21.74729        56.38075        -0.23138
C         22.93664        58.60601        -0.27828
C         21.67805        59.26138        -0.29751
C         22.83029        61.39128        -0.63748
C         21.64566        60.67161        -0.48017
C         24.10152         4.84908        -4.40990
C         25.32689         6.95132        -4.06122
C         24.15124         6.25291        -4.10925
C         25.30872         8.41277        -3.69783
C         24.31006         8.61392        -2.54457
C         25.51582        10.70811        -1.95947
C         24.33462        10.02389        -2.00990
C         25.58785        12.01434        -1.31451
C         24.36809        12.63600        -0.85172
C         25.65699        14.64791        -0.25015
C         24.44559        13.96911        -0.31264
C         25.75863        16.00064         0.43964
C         24.42719        16.75672         0.24369
C         25.67761        18.90053         0.59058
C         24.51044        18.19734         0.68701
C         25.72127        20.36057         1.01527
C         24.43863        21.12002         0.62992
C         25.52395        23.40626         0.80287
C         24.45158        22.48161         1.33535
C         25.71254        24.67252         1.63866
C         24.48111        25.35527         2.04704
C         25.72284        27.46943         2.71528
C         24.47852        26.69475         2.31033
C         25.69157        28.92870         2.26412
C         24.50398        29.61423         2.18119
C         25.72133        31.75613         1.73220
C         24.46151        31.06323         1.95428
C         25.68208        33.15890         1.42359
C         24.49089        33.87601         1.39150
C         25.71346        36.04348         1.07234
C         24.49835        35.31369         1.12393
C         25.74387        37.41913         0.80728
C         24.51807        38.08706         0.48520
C         25.83546        40.08029        -0.15441
C         24.52307        39.43488         0.00315
C         25.86105        41.50815        -0.65779
C         24.58024        42.18283        -0.90837
C         25.70118        44.39613        -0.68707
C         24.65319        43.60083        -1.45290
C         25.31226        45.51761        -0.00500
C         24.18288        46.31583        -0.40668
C         25.86472        48.84324         0.54203
C         24.02933        47.62808        -0.03229
C         25.68403        50.12354         0.03983
C         24.35350        50.71940        -0.22162
C         25.57553        52.94431         0.03702
C         24.31736        52.14902        -0.29396
C         25.54705        54.40629        -0.32306
C         24.31858        55.07817        -0.32102
C         25.48317        57.24443        -0.37576
C         24.28032        56.47828        -0.27002
C         25.39663        58.66130        -0.43035
C         24.14264        59.33789        -0.43905
C         24.06648        60.74699        -0.62479
C         26.64424         9.00719        -3.37858
C         27.96594        10.77909        -2.34609
C         26.73627        10.16198        -2.59032
C         28.10132        11.92478        -1.39529
C         26.80491        12.67604        -1.19767
C         28.06382        14.77276        -0.82040
C         26.85882        14.03214        -0.73908
C         28.09717        16.15404        -0.43573
C         26.95582        16.82445         0.00545
C         28.07818        19.03487         0.01083
C         26.93666        18.25117         0.21439
C         28.06761        20.49165         0.09440
C         26.88320        21.14936         0.43093
C         28.10861        23.35536         0.55011
C         26.80223        22.62860         0.44198
C         28.19270        24.59650         1.41857
C         26.89871        25.34217         1.67093
C         28.20877        27.51875         1.89154
C         27.07452        26.65862         2.44385
C         28.22084        28.90697         2.03248
C         26.98606        29.68988         2.45231
C         28.20182        31.78228         1.68412
C         26.95181        31.08904         1.86486
C         28.22033        33.15690         1.41671
C         26.95447        33.85539         1.01029
C         28.25479        36.06124         1.40072
C         26.95797        35.31565         1.39345
C         28.23409        37.50598         1.15668
C         27.01461        38.15737         0.86608
C         28.19465        40.37030         0.91055
C         27.00283        39.52940         0.53890
C         28.21313        41.77453         0.36550
C         27.12547        42.31193        -0.47369
C         28.33335        44.66863        -0.43577
C         27.06415        43.81633        -0.62437
C         28.30338        46.04432         0.18949
C         27.18046        46.74359         0.60688
C         28.28758        48.84526         0.06742
C         27.12283        48.15831         0.51898
C         28.18278        50.22363        -0.24716
C         26.90658        50.87212        -0.22728
C         28.04918        53.02339        -0.58666
C         26.85380        52.26685        -0.36894
C         27.99234        54.44205        -0.59066
C         26.76653        55.14529        -0.44769
C         26.71369        56.55818        -0.51452
C         29.23714        12.82867        -1.77319
C         30.41671        14.96675        -1.67175
C         29.24551        14.16804        -1.42998
C         30.51993        16.28859        -1.24812
C         29.37556        16.87937        -0.50996
C         30.44048        19.17386        -0.95374
C         29.36326        18.36619        -0.26404
C         30.53638        20.56594        -0.38568
C         29.31391        21.22104        -0.03414
C         30.55489        23.31077         0.31858
C         29.37296        22.60007         0.36210
C         30.58136        24.77805         0.50412
C         29.32164        25.48393         0.93855
C         30.65144        27.49442         1.44412
C         29.40680        26.85318         1.47252
C         30.67569        28.91153         1.69488
C         29.44566        29.61975         1.86832
C         30.67706        31.71293         1.55828
C         29.46034        31.04828         1.78132
C         30.67305        33.10712         1.10395
C         29.44146        33.89399         1.26209
C         30.73674        35.99452         0.96569
C         29.49655        35.28503         1.18367
C         30.75904        37.41826         0.88296
C         29.55056        38.24103         1.29455
C         30.65038        40.17944         0.17247
C         29.51480        39.62375         0.66469
C         30.79066        41.45344        -0.62811
C         29.24671        42.60852         0.77170
C         30.74634        44.48591        -0.00612
C         29.49206        43.89458         0.16342
C         30.78387        45.97844         0.00312
C         29.52537        46.74782         0.02670
C         30.73118        48.86144        -0.45652
C         29.53185        48.14926        -0.04214
C         30.61470        50.25759        -0.70299
C         29.38088        50.95126        -0.58279
C         29.28408        52.34837        -0.76228
C         31.70395        17.05279        -1.38330
C         32.95410        19.13185        -0.97498
C         31.75692        18.43345        -1.06437
C         33.00486        20.51417        -0.56125
C         31.75744        21.22198        -0.34583
C         33.04884        23.29517         0.38601
C         31.80297        22.71874        -0.25209
C         33.08929        24.60381         0.77340
C         31.87706        25.42460         0.79439
C         33.15886        27.37135         1.70267
C         31.87847        26.73416         1.21937
C         33.13090        28.84906         1.38990
C         31.89700        29.61939         1.63254
C         33.17898        31.76598         1.52107
C         31.93008        31.03037         1.58032
C         33.24202        33.13400         1.26736
C         31.98739        33.82939         0.91126
C         33.20046        35.97241         0.74382
C         31.96842        35.29736         0.88769
C         33.19050        37.36696         0.50982
C         31.96028        38.06840         0.59472
C         33.11217        40.10057        -0.36682
C         31.99619        39.57389         0.54775
C         33.18127        41.61150        -0.29851
C         31.98377        42.31716        -0.27732
C         33.21286        44.44299        -0.40492
C         31.97291        43.75263        -0.18383
C         33.28653        45.93684        -0.70784
C         32.06060        46.73791        -0.29388
C         31.92108        48.14917        -0.67778
C         34.20301        21.13174        -0.25653
C         35.49949        23.23550         0.15056
C         34.28552        22.42559         0.50787
C         35.60250        24.55163         0.60751
C         34.40395        25.16506         1.32031
C         35.63990        27.33651         1.23177
C         34.45399        26.68147         1.29165
C         35.72160        28.82094         1.51329
C         34.41227        29.56773         1.40157
C         35.59008        31.73671         0.97023
C         34.47741        31.02884         1.78884
C         35.79086        33.16491         1.46553
C         34.47336        33.89147         1.18373
C         35.68250        35.97652         0.59585
C         34.45663        35.24154         0.83363
C         35.67233        37.33144         0.32967
C         34.43606        38.07579         0.25864
C         35.67104        40.14148        -0.33155
C         34.43190        39.42238        -0.08169
C         35.62909        41.56181        -0.52016
C         34.43242        42.29653        -0.40901
C         34.39389        43.72177        -0.52003
C         36.79933        25.26329         0.53051
C         38.28242        27.28638         0.96521
C         36.96869        26.55119         1.29022
C         38.38733        28.41237         0.21490
C         36.60037        29.56909         0.54353
C         38.02176        31.56050         0.14239
C         36.83301        30.90974         0.68329
C         38.10948        32.94062         0.22937
C         37.03768        33.79015         0.83357
C         38.01098        35.83087        -0.41231
C         36.98311        35.25192         0.50707
C         37.94487        37.20203        -0.66093
C         37.00068        38.04218         0.15901
C         36.87572        39.45310        -0.33198
C         39.43074        29.40369        -0.02870
C         40.32322        31.50718        -0.81887
C         39.21245        30.75682        -0.23545
C         40.35314        32.84951        -0.89640
C         39.36173        33.70348        -0.16205
C         39.04868        35.00546        -0.86459
O         24.76760        48.13445         1.04708
O         26.12430        40.39635        -1.58741
O         27.54479        35.64790         2.68268
O         23.18499        54.35077        -2.15986
O         26.07886        46.02176         1.05869
O         14.05218        34.92212        -1.62873
O         11.45072        31.77591         2.76135
O         20.46378        43.71906        -3.15890
O         29.68350        25.44265        -0.47970
O         20.28143        24.90418         0.09874
O          9.41503        30.36332         2.78418
O         31.67445        46.45587         1.09216
O         33.78120        29.26934         0.11949
O         17.56174        50.55177        -2.73646
O         10.49143        37.08086        -2.53944
O         19.78353        38.09366        -1.79550
O         37.20067        28.81195        -0.45414
O         23.54267        14.86238         1.74940
O         17.60300        43.82702        -3.21704
O         31.28303        33.23828        -0.23916
O         21.28269        15.94633         2.28711
O         15.24703        25.03806        -0.24487
O         22.18322        20.83754        -0.12554
O         27.40154        23.34131        -0.71799
O         23.01060        28.21022         3.61894
O         29.80622        17.46535         0.78325
O         21.29429        36.12851         2.43258
O         30.16956        41.65495        -1.66014
O         22.84809        18.53535         2.48163
O         14.96805        18.50105        -0.53777
O         27.40604        42.93643        -1.77763
O         24.23840        22.40822         2.75877
O         27.59680        26.23923         3.70171
O         21.12426        22.64088         3.05380
O         37.57304        34.81168         1.78796
O         15.43581        23.18081         2.88008
H         15.77137        22.31323         3.23584
O         19.30053        31.34106        -0.03141
H         19.97062        30.80147        -0.50310
O         19.39291        13.30115        -2.24308
H         20.18707        13.86627        -2.35262
O         18.44062        31.83476         3.49863
H         19.23294        32.38706         3.72444
O         32.28238        40.03512         1.89244
H         31.60798        39.64039         2.49031
O         28.75711        45.00898        -1.79771
H         28.70075        44.17526        -2.32316
O         30.06691        42.26831         1.79993
H         29.63044        41.53053         2.30123
O         12.51806        39.72639         0.44722
H         11.77680        39.44255         1.02140
O         35.05004        31.91128        -0.37219
H         34.67703        31.05135        -0.67305
O         24.12920        16.80151        -1.18563
H         24.80342        17.36429        -1.62310
O         18.24898        23.35771        -0.60108
H         19.05647        23.87188        -0.83417
O         21.92001        31.15581         3.81042
H         21.71800        32.08936         4.05940
O         29.94741        19.34463        -2.32235
H         30.53391        19.98655        -2.77623
O         23.99780        46.13089        -2.81317
H         24.45899        45.32235        -3.14825
O         17.13451        13.34823         1.91965
H         17.98424        12.86457         2.00255
O         34.41495        22.05440         1.92329
H         34.48954        22.89589         2.44203
O         16.96382        29.52291         3.54600
H         17.56106        30.22809         3.90042
O         10.72716        29.10064        -0.35082
H         11.49644        28.62651        -0.73379
O         28.62223        24.08242         2.70730
H         28.35398        24.79134         3.37683
O          9.61095        35.93189         1.50204
H          8.77180        35.67050         1.93854
O         33.50271        46.09731        -2.12148
H         32.81039        45.59978        -2.60359
O          8.33555        31.19056        -1.25117
H          8.08465        30.54100        -1.94084
O         37.59768        38.14244         1.50940
H         36.96422        38.63567         2.07288
O         26.95469        33.86152        -0.45963
H         27.04948        32.93577        -0.76840
O         13.31346        39.18994        -3.07293
H         13.16914        38.22365        -2.97553
O         28.14223        40.53074         2.38263
H         28.43101        39.67511         2.79356
O         16.64444        20.81158         2.95511
H         17.49593        20.93639         3.43024
O         13.67993        36.10069         1.54268
H         12.97669        35.53762         1.92972
O         34.71520        31.00907         3.21898
H         35.03201        31.90617         3.49567
O         33.13676        27.24878         3.16846
H         32.24218        27.50443         3.48325
O         32.72161        39.72589        -1.71692
H         33.37374        40.10240        -2.34375
O         22.56579         7.64369        -5.23786
H         23.26539         8.33650        -5.35807
O          8.36275        24.62351         0.97347
H          8.42861        24.73593         0.00348
O         25.03200        43.51002        -2.86037
H         25.93165        43.09363        -2.88030
O         24.74146         7.75666        -1.44691
H         24.23781         8.04898        -0.65046
O         25.62468        52.96047         1.51938
H         25.71093        52.02818         1.81506
O         28.43329        11.35421        -0.06417
H         28.54749        12.10858         0.55315
O         36.00653        33.19355         2.89765
H         36.56088        33.99446         3.07432
O         24.56665        21.30690        -0.78936
H         23.68589        21.57873        -1.13557
O          7.25248        29.06278         2.40666
H          7.14254        30.04226         2.52715
O         12.15870        22.80278        -1.11220
H         12.07069        23.77195        -1.23694
O         37.08745        26.20452         2.70106
H         36.92991        27.03870         3.20257
O         23.33018         9.75863         0.11608
H         24.05672        10.21999         0.58961
O         25.62245        27.58507         4.16162
H         26.29852        26.92491         4.50472
O         27.09536        29.88415         3.90231
H         26.62152        29.11429         4.32061
O         12.90879        22.72756         2.47645
H         13.68303        23.00100         3.03046
O          7.27751        31.81658         2.18765
H          7.81116        32.00608         2.98953
O         25.85981        20.38874         2.45049
H         26.56351        19.75970         2.71339
O         34.47649        24.76380         2.72004
H         34.00970        25.45671         3.24643
O         14.77838        22.68901        -0.71927
H         13.92789        22.55399        -1.20747
O         21.10394        27.49959        -0.15070
H         20.95477        26.57469        -0.46852
O         29.74682        38.44423         2.76369
H         29.55723        37.58255         3.19844
O         25.99430        15.78707         1.85071
H         25.22887        15.27066         2.20713
O         31.84741        23.17454        -1.66482
H         31.45017        24.07274        -1.70084
O         23.02170        57.16994         1.59838
H         22.23433        57.67725         1.89233
O         36.30496        28.93540         2.83851
H         35.86431        29.69958         3.29868
O         40.06082        34.11409         1.06503
H         39.39059        34.58774         1.61895
O         18.29070        24.17854         2.98865
H         18.19244        24.98462         3.53834
O         24.94638        23.90547        -0.43773
H         25.70196        24.07879        -1.04889
O         24.77693         9.18900        -4.83887
H         25.46344         9.19361        -5.53921
O         13.31044        41.63236        -3.38002
H         13.32993        40.77439        -3.86558
O         17.00256        16.80862        -1.32488
H         16.22271        17.34274        -1.60373
O         20.64575        33.58167         3.52986
H         20.78398        34.55901         3.61714
O         23.09287        24.56606         3.80069
H         23.73799        23.90120         4.12930
O         20.96987        48.84659        -3.20945
H         21.21619        47.98293        -3.60506
H          5.26778        30.95756        -0.55887
H          5.03575        33.42189        -0.44011
H          7.41886        26.77683         1.22416
H          6.45556        28.98421        -0.12176
H          6.29229        35.47904        -0.99075
H          7.51703        37.46930        -1.60795
H          9.79616        22.70573         0.69037
H          9.39083        25.08376         2.68818
H          8.81645        39.76605        -1.67647
H         10.00600        41.91798        -1.26314
H         12.20105        18.46447         1.37780
H         11.07899        20.49977         0.46740
H         11.25896        43.96142        -1.00027
H         12.46031        46.10371        -1.12616
H         14.81621        14.04878         0.69431
H         13.66117        16.02143         1.33235
H         13.65530        48.22668        -1.10251
H         14.81969        50.32040        -0.86959
H         17.20615        10.11053        -1.47691
H         16.05727        11.94685        -0.28218
H         16.02610        52.53200        -0.57624
H         17.16295        54.67876        -0.45295
H         19.52358         6.19227        -3.20918
H         18.34993         8.24323        -2.49102
H         18.32599        56.85096        -0.26073
H         19.51148        59.02552        -0.17478
H         22.90691         3.07939        -4.63168
H         20.77690         4.16016        -3.95973
H         22.78772        62.48031        -0.77954
H         20.67619        61.18908        -0.50675
H         25.04287         4.32298        -4.62832
H         26.28793         6.44056        -4.23291
H         26.31946        59.25065        -0.54043
H         24.99294        61.32386        -0.75612
H         27.54994         8.59836        -3.85319
H         28.87834        10.36050        -2.79760
H         28.92282        55.01185        -0.73303
H         27.64342        57.12934        -0.65073
H         30.13707        12.37970        -2.22058
H         31.26860        14.49485        -2.18431
H         31.51183        50.82391        -0.99495
H         30.19014        52.93372        -0.97716
H         32.62432        16.54801        -1.71629
H         33.90484        18.59186        -1.10406
H         34.18705        46.37093        -0.20204
H         32.77330        48.64864        -1.16172
H         35.13997        20.56698        -0.38437
H         36.35708        22.75707        -0.34807
H         36.57611        42.09777        -0.68098
H         35.33395        44.25986        -0.71361
H         37.65986        24.81761         0.00750
H         39.15711        26.92447         1.52552
H         38.67527        37.68500        -1.32652
H         37.81074        40.00950        -0.49980
H         40.45929        29.03594        -0.18289
H         41.13632        30.91918        -1.27297
H         41.19790        33.35807        -1.38470
H         39.83592        35.45104        -1.49383
