         661
 CSIRO Nanostructure Databank - Neutral Graphene Oxide Data Set
C          5.83578        31.71100         0.21170
C          5.86321        33.04555         0.03046
C          8.29633        27.39114         0.48385
C          8.28419        28.80278         0.56445
C          7.06583        29.57207         0.43870
C          8.27474        31.71194         0.66865
C          7.06184        30.95281         0.42234
C          8.34192        33.08946         0.51328
C          7.15203        33.82133        -0.08230
C          8.33184        35.98041         0.40862
C          7.01891        35.23874         0.48120
C          8.33002        37.37429         0.28739
C         10.73485        23.08695         0.47082
C         10.72850        24.48799         0.58562
C          9.52114        25.23358         0.53983
C         10.74332        27.36984         0.71410
C          9.50124        26.65171         0.58998
C         10.74078        28.79594         0.75892
C          9.50115        29.49878         0.75871
C         10.78524        31.71860         1.03015
C          9.47347        30.94847         1.02212
C         10.80260        33.17396         0.81168
C          9.57772        33.83081         0.67309
C         10.75736        36.01577         0.73581
C          9.55504        35.28743         0.57211
C         10.72778        37.44167         0.69929
C          9.51405        38.10851         0.40061
C         10.79393        40.28571         0.19206
C          9.44875        39.61382         0.33595
C         10.85614        41.62016        -0.12392
C         13.42563        18.82133         0.00280
C         13.33467        20.25010         0.06371
C         12.07282        20.87730         0.20893
C         13.27382        23.09932         0.48987
C         11.95008        22.28751         0.55491
C         13.18363        24.56478         0.45656
C         11.98871        25.22432         0.66546
C         13.19014        27.40505         0.83501
C         11.98148        26.67468         0.76893
C         13.20755        28.81709         0.67835
C         11.97395        29.50083         0.67164
C         13.19631        31.73248         0.23221
C         11.94424        30.96299         0.51121
C         13.27652        33.13967         0.71498
C         12.09221        33.86155         0.87486
C         13.01732        36.09002         1.58381
C         12.00814        35.32656         1.05663
C         13.11024        37.58497         1.58728
C         11.92740        38.21422         0.90588
C         13.26261        40.24475         0.54317
C         11.98781        39.56129         0.55666
C         13.29449        41.60024         0.22636
C         12.09903        42.34015        -0.09237
C         13.32419        44.49571        -0.32134
C         12.13451        43.71365        -0.37133
C         13.37762        45.83716        -0.67125
C         15.87631        14.64900        -0.43396
C         15.83153        16.01836        -0.53806
C         14.67989        16.74813        -0.15660
C         15.82909        18.88253        -0.68214
C         14.62267        18.14899        -0.27427
C         15.72002        20.36071        -0.73629
C         14.53055        20.99680        -0.14272
C         15.74495        23.26650        -0.28763
C         14.46360        22.45848        -0.13904
C         15.77574        24.73177         0.10728
C         14.46718        25.23891         0.70008
C         15.77116        27.42158         0.85740
C         14.47151        26.71844         0.99885
C         15.71355        28.84127         0.57455
C         14.46224        29.50117         0.49507
C         15.71303        31.62447        -0.24472
C         14.43574        30.90293         0.03371
C         15.56709        33.14876        -0.28686
C         14.74082        33.56197         0.94649
C         15.77812        35.88248         0.62271
C         14.94335        35.01042         1.22172
C         15.73172        37.31571         1.10742
C         14.45373        38.13062         1.07471
C         15.80024        40.14636         0.52273
C         14.48854        39.46907         0.76536
C         15.84187        41.61813         0.24511
C         14.55631        42.35696         0.34975
C         15.86346        44.51553        -0.07649
C         14.56819        43.83741         0.13111
C         15.85029        45.89189        -0.33395
C         14.60321        46.58746        -0.61334
C         15.82821        48.72751        -0.78901
C         14.62116        47.95871        -0.85526
C         15.84393        50.10441        -1.07992
C         18.27776        10.43042         0.32128
C         18.27823        11.85162        -0.19521
C         17.11040        12.48926        -0.45465
C         18.33252        14.68398        -0.66900
C         17.06464        13.89969        -0.96768
C         18.31160        16.08649        -0.82094
C         16.98908        16.73455        -1.20795
C         18.22946        18.91363        -1.58242
C         16.98723        18.23960        -1.00669
C         18.31259        20.53936        -1.37804
C         16.98483        21.18164        -0.98756
C         18.19643        23.09077         0.09092
C         17.03844        22.54404        -0.39189
C         18.23189        24.44358         0.71435
C         16.91692        25.16011         1.03784
C         18.22533        27.36884         0.83255
C         16.96710        26.69501         0.92876
C         18.17458        28.85018         0.81053
C         16.93711        29.56764         0.44863
C         18.18061        31.67130        -0.04747
C         16.98479        30.95711         0.12011
C         18.20337        33.10856        -0.47156
C         16.91096        33.88436        -0.45486
C         18.24332        36.02638         0.11694
C         16.88948        35.42825        -0.32821
C         18.25755        37.33503         0.60825
C         17.03958        38.03436         1.11049
C         18.28804        40.29417         0.87487
C         17.00591        39.57447         1.24497
C         18.31120        41.64622         0.55828
C         17.10267        42.39132         0.35768
C         18.31717        44.54337         0.09664
C         17.08812        43.79120         0.12290
C         18.29438        45.93007        -0.00707
C         17.06966        46.64429        -0.25492
C         18.27194        48.82188        -0.36869
C         17.04749        48.04972        -0.43383
C         18.24701        50.22537        -0.66383
C         17.04474        50.87781        -1.03256
C         18.25141        53.05314        -1.29564
C         17.06612        52.28760        -1.28976
C         18.26531        54.46547        -1.45314
C         20.80904         6.14922        -0.04019
C         20.76754         7.54947        -0.09557
C         19.55817         8.30289         0.06769
C         20.77217        10.40983        -0.21603
C         19.55556         9.67995         0.02040
C         20.77710        11.83843        -0.30136
C         19.54207        12.56054        -0.31562
C         20.79900        14.69945        -0.26612
C         19.52982        13.96987        -0.43326
C         20.76885        16.22232        -0.42433
C         19.49462        16.86266        -0.78534
C         20.73092        18.96480        -1.09294
C         19.51419        18.25195        -1.08581
C         20.73368        20.40246        -0.88867
C         19.50556        21.03839        -0.64015
C         20.74493        23.16400        -0.10460
C         19.50298        22.31138         0.16441
C         20.74027        24.52807         0.15785
C         19.51986        25.20972         0.67838
C         20.70110        27.39880         0.60813
C         19.46042        26.69775         0.72498
C         20.73149        28.80733         0.52329
C         19.47820        29.57845         0.59014
C         20.79205        31.67382        -0.01897
C         19.43185        30.92438        -0.02694
C         20.73489        33.12235         0.05805
C         19.55334        33.87798        -0.53591
C         20.72205        35.97049         0.18539
C         19.47634        35.31415        -0.02032
C         20.79105        37.39055         0.51182
C         19.51888        38.01649         0.92884
C         20.83598        40.25955         1.19716
C         19.51811        39.54466         1.16179
C         20.81533        41.75949         1.07380
C         19.64979        42.27987         0.21409
C         20.89023        44.58414         0.25055
C         19.61885        43.80980         0.07105
C         20.83666        46.06474         0.31479
C         19.49609        46.75235         0.39392
C         20.74655        48.84189        -0.40643
C         19.47700        48.16234        -0.11259
C         20.79428        50.31844        -0.35512
C         19.46650        51.03281        -0.50612
C         20.74420        53.04493        -1.16837
C         19.51719        52.40521        -1.01213
C         20.77597        54.47172        -1.66015
C         19.47308        55.19938        -1.42685
C         20.69701        57.32902        -1.11342
C         19.48472        56.58825        -1.30824
C         20.67805        58.73104        -1.05013
C         23.22997         3.35566         0.35759
C         22.03474         4.03707         0.18448
C         23.28177         6.13097        -0.25970
C         22.03813         5.43939        -0.05822
C         23.19755         7.53765        -0.52020
C         21.98750         8.25933        -0.31957
C         23.20846        10.40343        -0.59145
C         21.98672         9.68797        -0.38138
C         23.20468        11.80477        -0.69968
C         22.00771        12.53303        -0.54297
C         23.24459        14.67028        -0.74940
C         22.04990        13.97665        -0.55062
C         23.32374        16.17765        -0.53310
C         22.01604        16.91201        -0.73589
C         23.25097        19.00186        -1.20116
C         22.00323        18.26431        -1.04106
C         23.12418        20.47503        -1.56125
C         21.96398        21.13051        -0.82896
C         23.20737        23.23611        -0.48552
C         21.97059        22.50506        -0.49676
C         23.20502        24.61315        -0.10322
C         21.96493        25.27963         0.14473
C         23.18093        27.36079         0.55243
C         21.95300        26.66456         0.45766
C         23.14425        28.76428         1.09797
C         21.94471        29.53944         0.59446
C         23.14308        31.69359         0.76648
C         21.95810        30.93909         0.50620
C         23.14688        33.06862         0.59559
C         21.92649        33.80268         0.31711
C         23.21651        35.92506         0.05507
C         21.93602        35.23306         0.19782
C         23.23648        37.44422         0.08551
C         21.97972        38.09964         0.46371
C         23.35702        40.25335         0.62756
C         22.10847        39.50366         0.91011
C         23.46133        41.74565         0.94859
C         22.11757        42.48642         1.08724
C         23.16552        44.72975         1.14778
C         22.12407        43.93657         0.74999
C         23.27316        46.14595         0.72699
C         21.99933        46.77435         0.32247
C         23.31465        48.88614        -0.31664
C         22.04560        48.13230        -0.24205
C         23.28749        50.26015        -0.67292
C         22.04608        50.99413        -0.72605
C         23.26163        53.08037        -1.40994
C         21.99077        52.34882        -1.04143
C         23.17646        54.52401        -0.98433
C         21.99965        55.20232        -1.15615
C         23.12738        57.35267        -0.63657
C         21.93874        56.63258        -0.93015
C         23.10026        58.79360        -0.61199
C         21.86474        59.47798        -0.83713
C         23.02067        61.60908        -0.63227
C         21.85091        60.90003        -0.83563
C         24.44456         4.04896         0.32834
C         25.80513         6.05357         0.19306
C         24.52308         5.42454         0.00626
C         26.14567         7.28962        -0.37846
C         24.32629         8.30039        -0.93889
C         25.72766        10.35778        -0.75983
C         24.43618         9.67920        -0.79596
C         25.72499        11.76272        -0.86770
C         24.44021        12.47582        -1.23710
C         25.67918        14.63295        -1.10214
C         24.46260        13.96210        -0.97806
C         25.68363        16.07337        -1.42296
C         24.35626        16.80213        -1.47520
C         25.71367        19.00741        -1.24869
C         24.45233        18.31511        -1.27419
C         25.70511        20.45773        -1.16844
C         24.47185        21.27219        -1.56152
C         25.65787        23.29975        -0.68107
C         24.45176        22.61230        -0.82996
C         25.69683        24.65480        -0.20212
C         24.43091        25.33449         0.00219
C         25.70237        27.48795         0.22323
C         24.40024        26.71544         0.31679
C         25.65636        28.86795         0.83988
C         24.43638        29.51185         0.98838
C         25.66982        31.60714         0.84316
C         24.35960        30.97911         1.33493
C         25.67450        33.11904         1.00843
C         24.45801        33.78062         0.32563
C         25.73240        35.96745         0.43205
C         24.41669        35.26926         0.69436
C         25.71867        37.37779         0.39696
C         24.52311        38.11380         0.35930
C         25.81057        40.24206         0.15319
C         24.53797        39.55422         0.42852
C         25.69816        41.64430        -0.34292
C         24.42021        42.38510        -0.11254
C         25.79484        44.60208        -0.26645
C         24.53256        43.84682        -0.59607
C         25.79128        45.98949        -0.06038
C         24.56059        46.77076         0.25318
C         25.75956        48.86382        -0.36564
C         24.52206        48.17969        -0.22439
C         25.75159        50.24306        -0.66883
C         24.53242        50.96014        -0.83105
C         25.71006        53.13440        -0.81286
C         24.52519        52.37766        -0.97545
C         25.67197        54.51266        -0.55433
C         24.34393        55.17044        -0.28348
C         25.57908        57.35396        -0.23241
C         24.36249        56.66817        -0.43476
C         25.60177        58.85951        -0.08284
C         24.28443        59.53891        -0.38236
C         24.23470        60.93197        -0.40299
C         27.04348         8.28197         0.02638
C         28.11520        10.43877        -0.21291
C         26.95442         9.66560        -0.37844
C         28.14282        11.83428        -0.43669
C         26.92116        12.51991        -0.75571
C         28.14609        14.67345        -0.81871
C         26.92773        13.94037        -0.94702
C         28.18837        16.09242        -0.93485
C         26.97233        16.82765        -1.33104
C         28.19011        18.95506        -1.06448
C         26.94541        18.29822        -1.18295
C         28.16088        20.42115        -1.13990
C         26.88665        21.14306        -1.02194
C         28.19838        23.26391        -0.47893
C         26.95496        22.65758        -1.12262
C         28.17987        24.62932        -0.04960
C         26.91582        25.30816         0.07117
C         28.15557        27.44236         0.70641
C         26.86854        26.65445         0.76889
C         28.15085        28.80805         0.99826
C         26.90785        29.50702         1.10235
C         28.15581        31.69062         1.27628
C         26.87250        30.94729         1.54912
C         28.19157        33.00912         0.97164
C         26.96725        33.71868         0.43461
C         28.17635        35.89501         0.53965
C         26.96447        35.23665         0.55868
C         28.20409        37.29942        -0.02214
C         27.03059        38.11388         0.56528
C         28.23626        40.18046        -0.40112
C         26.97145        39.53498         0.03809
C         28.25363        41.65438        -0.68594
C         26.95742        42.41732        -0.68692
C         28.24278        44.59123        -0.43630
C         27.01874        43.89721        -0.45995
C         28.25266        46.01306        -0.26344
C         27.01481        46.72047        -0.15051
C         28.23657        48.86610        -0.20845
C         27.00685        48.14908        -0.22245
C         28.26518        50.26670        -0.41109
C         27.03418        50.93342        -0.83805
C         28.24097        53.17748        -0.46866
C         27.02113        52.46497        -0.89728
C         28.12985        54.57214        -0.27029
C         26.88022        55.24438        -0.33305
C         26.79072        56.65805        -0.13959
C         29.34175        12.56760        -0.31671
C         30.55893        14.69230        -0.30960
C         29.36283        13.96476        -0.49172
C         30.58639        16.09143        -0.42599
C         29.38216        16.81279        -0.75132
C         30.68072        18.94746        -0.75038
C         29.42380        18.24944        -0.88390
C         30.67303        20.37119        -0.76947
C         29.44291        21.16595        -0.95195
C         30.63116        23.19095        -0.07139
C         29.42081        22.57481        -0.49065
C         30.63056        24.57486         0.29674
C         29.39847        25.28610         0.26769
C         30.58446        27.29011         1.28928
C         29.46301        26.79571         0.35711
C         30.64005        28.81524         1.33973
C         29.41346        29.50048         1.29395
C         30.72393        31.71107         1.76699
C         29.36870        30.91856         1.62763
C         30.71152        33.07437         1.28612
C         29.49395        33.69831         0.65528
C         30.69760        35.93354         0.71996
C         29.41037        35.19869         1.04840
C         30.60360        37.41508         0.70223
C         29.48553        38.04262         0.27614
C         30.78129        40.23501         0.09338
C         29.52764        39.47337        -0.12238
C         30.81517        41.68704        -0.12600
C         29.58148        42.37740        -0.63175
C         30.80411        44.60234        -0.23638
C         29.54053        43.87822        -0.60014
C         30.77628        46.07220        -0.09509
C         29.47133        46.76268        -0.16404
C         30.71855        48.89156         0.13968
C         29.46924        48.14998        -0.04779
C         30.67138        50.31290         0.03377
C         29.47583        51.01580        -0.26271
C         29.42983        52.44883        -0.28475
C         31.77787        16.80954        -0.19252
C         33.11754        18.77064         0.09998
C         31.87679        18.20236        -0.34765
C         33.57986        20.04765        -0.22563
C         31.83002        21.16372        -0.77593
C         33.12021        23.03832         0.16335
C         31.89275        22.48509        -0.22445
C         33.11058        24.38505         0.85357
C         31.86342        25.21858         0.63123
C         33.09486        27.28206         1.18034
C         31.90413        26.60939         0.96709
C         33.13008        28.71479         1.54405
C         31.87362        29.49783         1.53288
C         33.20073        31.61587         1.61339
C         31.97662        30.91656         1.66919
C         33.14702        33.13132         1.81108
C         32.04400        33.68440         0.91458
C         33.23398        36.00637         1.30768
C         32.01324        35.23509         0.89610
C         33.05462        37.48453         1.47984
C         31.80837        38.18701         1.04426
C         33.21551        40.28123         0.37418
C         31.88826        39.58333         0.56280
C         33.11680        41.72166         0.89240
C         31.91592        42.40440         0.27330
C         33.21091        44.60014         0.44044
C         31.87226        43.88447         0.57433
C         33.19854        45.97442         0.46496
C         31.89541        46.72237         0.70752
C         31.89629        48.20923         0.45438
C         34.51763        20.90342         0.35902
C         35.57520        23.09405         0.26188
C         34.40068        22.33309         0.20927
C         35.55896        24.52565         0.27563
C         34.35537        25.17312         0.58005
C         35.43765        27.41251         0.29079
C         34.42981        26.57243         1.11902
C         35.73426        28.76020         0.96131
C         34.44913        29.47733         1.38021
C         35.53571        31.64548         0.79048
C         34.40976        30.95143         1.26487
C         35.64464        33.10000         0.99886
C         34.45866        33.85620         1.52888
C         35.76699        35.96060         1.20204
C         34.44496        35.34107         1.38957
C         36.03067        37.29682         1.48803
C         34.22157        38.38828         1.61445
C         35.67454        40.27697         0.90896
C         34.38299        39.59582         1.02133
C         35.63885        41.67288         0.66055
C         34.43576        42.43956         0.61930
C         34.42379        43.81818         0.42596
C         36.75372        25.28154         0.04581
C         37.83848        27.44220        -0.39675
C         36.73627        26.68246         0.00263
C         37.76524        28.87576        -0.52645
C         36.64571        29.57282         0.07120
C         37.63799        31.74141        -0.54813
C         36.60670        30.97364         0.09904
C         37.72656        33.13523        -0.38453
C         36.72960        33.85103         0.34108
C         37.93655        35.98289        -0.01261
C         36.80156        35.24277         0.50125
C         38.01200        37.37928         0.11747
C         37.00944        38.10828         0.82232
C         36.88381        39.52969         0.77767
C         38.74265        29.58745        -1.20184
C         39.85896        31.78877        -1.71706
C         38.56330        31.04358        -1.51562
C         39.95636        33.11535        -1.49184
C         38.86980        33.87368        -0.88630
C         38.95851        35.23961        -0.69556
O         20.12220        50.85730         0.81851
O         14.09462        35.48500         2.24741
O         35.50806        33.43750         2.45742
O         19.08976        24.51293         1.92640
O         15.94376        40.61633        -0.84487
O         18.88324        29.52214         1.92824
O         14.83947        23.10571        -1.41931
O         18.19333        18.68826        -2.96401
O         23.77807        44.29560        -1.43952
O         35.24345        37.91945         2.45982
O         12.23416        31.47006        -0.84996
O         12.83366        22.56247         1.73393
O         14.47943        25.72696         2.07273
O         27.17856        51.66809        -2.10756
O         20.83511        54.33669        -3.18593
O         32.95690        20.63793        -1.36427
O         16.02397        20.97748        -2.04991
O         29.75651        43.15159        -1.85730
O         16.50712        37.42088         2.35564
O         29.90094        31.32062         2.92388
O         32.06232        37.92232         2.49787
O         19.42141        38.61264         2.27755
O         20.41541        44.19440        -1.11545
O         15.00265        30.99564        -1.34953
O         23.32206        36.67996        -1.17115
O         28.92228        20.97606        -2.33130
O         24.14428        46.84096         1.70200
O         20.21716        31.07685        -1.24204
O         20.82984        15.57498         0.91794
O         17.46926        33.41493        -1.71717
O         10.18225        31.29539         2.27987
O         31.48062        43.92804         1.95820
O         31.50358        35.58740        -0.45546
O         21.38418        48.22180        -1.58304
O         34.00308        29.01946         2.70249
O         24.60825        41.63955        -1.34601
O         27.07947        33.47956        -0.97695
O         27.54872        41.95161        -1.93191
O         26.45639        16.35709        -2.64675
O         31.26300        45.45136        -1.33442
O         28.98747        39.55146        -1.50941
O         25.38538         7.61731        -1.52709
O         14.50879        43.26611         1.50338
O         21.29595        42.33693         2.32301
O         21.65504        39.78265         2.29435
O         24.17106        44.30635         1.95034
H         24.65546        45.12196         2.23698
O         25.76311        31.25907        -0.54708
H         26.32221        31.96691        -0.99183
O          8.54586        40.04013        -0.69180
H          8.88019        39.70998        -1.55064
O         26.65038        59.42755        -0.88331
H         26.43685        59.26709        -1.82522
O         15.23530        32.81016         2.08624
H         14.87001        33.22614         2.89708
O         13.05880        38.00231         2.99359
H         13.85589        37.62858         3.42958
O         19.97429        41.71307        -1.08662
H         20.33698        42.44995        -1.64017
O         16.81765        16.51860        -2.64076
H         17.33592        17.26338        -3.08624
O         25.66753        33.40020         2.42823
H         25.08307        32.72848         2.86382
O         21.81402        55.25749        -3.69927
H         22.64136        54.70281        -3.68093
O         22.61265        20.39927        -2.92180
H         23.27558        20.83316        -3.51192
O         24.32531        12.37020        -2.70674
H         24.34921        11.41562        -2.93257
O         23.34599        53.10156        -2.88606
H         23.32145        52.17261        -3.20119
O         24.10069        54.93054         1.16610
H         23.27450        55.40436         1.40322
O         29.68028        33.60761        -0.77486
H         28.74521        33.62764        -1.17049
O         32.88717        41.71762         2.31157
H         32.38342        42.56620         2.51035
O         19.31841        46.89361         1.87067
H         18.46915        47.36282         2.02249
O         24.53546        33.71250        -1.10654
H         25.49972        33.76673        -1.38109
O         24.72823        21.62335        -2.95348
H         25.55931        22.17430        -2.99132
O         27.30102        38.20337         1.99636
H         26.52616        38.61821         2.43203
O          7.42694        33.99386        -1.50445
H          7.54022        33.10470        -1.90078
O         34.87892        26.40804         2.49431
H         34.96148        27.31763         2.88166
O         32.37695        33.22913        -0.41838
H         31.66116        33.57219        -1.01130
O         29.30208        35.20044         2.49859
H         29.14865        36.12062         2.80321
O         26.61596        26.38955         2.17918
H         25.72811        25.97833         2.25365
O         19.62582        21.87825         1.56072
H         19.58939        22.70598         2.10368
O         36.49841        28.49538         2.16796
H         36.62781        29.34583         2.63790
O         18.63975        21.05759        -2.68564
H         18.51149        20.26668        -3.30469
O          6.59500        35.18468         1.85286
H          7.29749        34.74421         2.37475
O         37.88042        31.08679        -2.83464
H         37.73696        32.03273        -3.05271
O         33.14949        24.09654         2.31019
H         33.65852        24.83035         2.73369
O         27.07825        22.94452        -2.56763
H         27.84561        22.39678        -2.88039
O         24.15178        41.80071         2.21661
H         23.46937        41.69360         2.91659
O         24.18311        31.11127         2.78427
H         24.98536        30.71817         3.21559
O         32.79057        33.40834         3.17781
H         33.58851        33.25010         3.72727
O         14.77924        33.52374        -1.42570
H         14.65948        32.71174        -1.97702
O         23.82693        16.60113        -2.80515
H         24.58073        16.68864        -3.43117
O         29.82325        27.25699        -0.98154
H         29.05907        27.09945        -1.57627
O         16.62108        35.97322        -1.63063
H         16.99745        35.34516        -2.28853
O         33.47787        40.32985        -1.05269
H         32.72577        40.78246        -1.49181
O         25.98339        27.68939        -1.18996
H         25.44978        28.44923        -1.50672
O         17.13463         9.71155        -0.14458
H         17.14945         9.71247        -1.12365
O         31.58177        46.57099         2.11890
H         31.53343        45.56999         2.29108
O         23.74389        16.39687         0.83904
H         22.99132        16.12536         1.41223
O         16.77698        39.89097         2.63892
H         17.43622        39.38335         3.16324
O         34.80070        27.73066        -0.96652
H         34.80405        26.93175        -1.53329
O         24.14259        35.45788         2.11069
H         24.79494        34.89634         2.60714
O         22.93925        28.60867         2.54825
H         23.03594        29.50863         2.94465
O         16.93517        13.81286        -2.42122
H         16.87175        14.74883        -2.75812
O         19.88672        33.99220        -1.94796
H         19.95371        33.07877        -2.30575
O         16.60577        24.72742         2.36970
H         17.42063        24.84126         2.90833
O         26.72829        30.94422         3.00722
H         27.62901        30.93469         3.40155
O         30.22332        26.85165         2.62200
H         30.91922        27.14668         3.24556
O         28.01702        37.12425        -1.43683
H         28.32921        37.94799        -1.88938
O         15.99381        25.44636        -1.13709
H         15.52043        24.95645        -1.84794
H          4.88113        31.16336         0.21191
H          4.92690        33.60027        -0.13198
H          7.34690        26.85288         0.34535
H          6.11997        29.03040         0.28797
H          6.23010        35.79246        -0.08401
H          7.38279        37.90749         0.12169
H          9.79765        22.57247         0.21017
H          8.56649        24.69229         0.45839
H          9.00112        39.97227         1.30740
H          9.92979        42.16352        -0.36148
H         12.52444        18.22827         0.21733
H         11.16356        20.27027         0.09233
H         11.19544        44.21471        -0.65152
H         12.45860        46.35547        -0.98382
H         15.01932        14.09736        -0.01611
H         13.80599        16.20377         0.23267
H         13.68029        48.47425        -1.09959
H         14.90227        50.60202        -1.35552
H         18.18049        10.48143         1.44434
H         16.16180        11.93757        -0.36401
H         16.11229        52.79253        -1.50492
H         17.30877        55.01009        -1.48140
H         19.87484         5.58500         0.10054
H         18.61349         7.77026         0.25231
H         18.53007        57.13695        -1.29273
H         19.72761        59.26583        -1.19594
H         23.22445         2.27751         0.56963
H         21.07350         3.51302         0.28298
H         23.00773        62.70780        -0.64197
H         20.90156        61.42696        -1.00784
H         25.37620         3.50835         0.54951
H         26.51714         5.55637         0.86953
H         25.87442        59.09084         0.98565
H         25.15866        61.50436        -0.24042
H         27.84223         8.02057         0.73710
H         29.04831         9.93794         0.08523
H         29.02964        55.15117        -0.01384
H         27.71571        57.23097         0.02158
H         30.27481        12.04168        -0.06605
H         31.48402        14.15407        -0.05620
H         31.59839        50.88500         0.19219
H         30.35302        52.99832        -0.04601
H         32.67189        16.24994         0.11978
H         33.72889        18.15148         0.77324
H         34.14708        46.53686         0.46205
H         32.81479        48.78778         0.64419
H         35.34565        20.51044         0.96639
H         36.54725        22.58019         0.25148
H         36.59326        42.20047         0.49556
H         35.38195        44.35052         0.29882
H         37.69025        24.74334        -0.16333
H         38.76578        26.93189        -0.69952
H         38.83066        37.92183        -0.37895
H         37.76236        40.08804         0.41153
H         39.59615        29.05507        -1.64871
H         40.69966        31.24177        -2.17016
H         40.88729        33.65330        -1.72827
H         39.84580        35.77957        -1.05979
