         410
 CSIRO Nanostructure Databank - Neutral Graphene Oxide Data Set
C         28.05026        27.37976        -1.12342
C         27.96789        28.80641        -0.86917
C         26.79955        29.57590        -1.08368
C         27.75158        31.51186         0.06518
C         26.75090        30.93302        -0.74689
C         27.92264        33.04434         0.17227
C         26.68267        33.77646         0.60573
C         27.88452        35.91879         0.68668
C         26.69714        35.15398         0.71313
C         27.79725        37.41427         0.39671
C         26.74007        38.13686         1.19745
C         27.92668        40.29750         1.03817
C         26.76649        39.47691         1.35511
C         27.87563        41.69612         1.03279
C         26.66019        42.46162         1.02290
C         27.89185        44.56025         0.63913
C         26.67188        43.82552         0.88589
C         27.89465        46.00584         0.57334
C         30.47753        27.35295        -0.66565
C         29.18070        26.66998        -0.86359
C         30.41833        28.84287        -0.30994
C         29.05402        29.41819        -0.19338
C         30.65923        31.68827         0.78014
C         28.77742        30.63591         0.44778
C         30.51955        33.06820         0.63871
C         29.17267        33.67423         0.85019
C         30.44435        35.91102         0.69917
C         29.16006        35.20548         0.87875
C         30.42185        37.37893         0.54576
C         29.14387        38.14949         0.46924
C         30.38745        40.27936         0.80422
C         29.18112        39.60777         0.81317
C         30.45669        41.73598         0.96596
C         29.13306        42.46854         1.03003
C         30.33815        44.52891         0.19774
C         29.09819        43.87533         0.61791
C         30.31600        46.06388         0.10372
C         29.04699        46.71878         0.45579
C         32.93228        24.54449         0.02956
C         31.74715        25.23222        -0.20702
C         32.93421        27.35694        -0.11671
C         31.72818        26.63143        -0.31020
C         32.93139        28.80995        -0.07973
C         31.69386        29.52767         0.06403
C         32.89653        31.72312        -0.11167
C         31.72981        30.93053         0.26599
C         32.92921        33.15503         0.20638
C         31.70690        33.82763         0.45798
C         32.92989        35.98334         0.43567
C         31.66704        35.26255         0.55231
C         32.95509        37.38355         0.55909
C         31.69903        38.08715         0.86789
C         32.94159        40.29717         0.53770
C         31.69118        39.58014         0.86419
C         32.89692        41.71778         0.33497
C         31.68236        42.44309         0.50380
C         32.83519        44.56066         0.00543
C         31.64065        43.82870         0.27921
C         32.82979        46.00879         0.01230
C         31.62668        46.75257         0.18982
C         32.90721        48.82262         0.29590
C         31.69409        48.14007         0.36763
C         35.43182        23.09134         0.38470
C         35.41364        24.50550         0.33607
C         34.16065        25.22368         0.14310
C         35.40971        27.35379         0.18388
C         34.16330        26.64689         0.06991
C         35.40819        28.77881         0.15019
C         34.17260        29.48812         0.00505
C         35.41584        31.71075         0.16868
C         34.23038        30.94274        -0.19366
C         35.40477        33.11236         0.22108
C         34.16456        33.84645         0.19497
C         35.39236        35.99956         0.32249
C         34.16094        35.27540         0.30520
C         35.38324        37.41427         0.39726
C         34.16529        38.12031         0.49854
C         35.36316        40.28992         0.13205
C         34.14113        39.58243         0.44302
C         35.29485        41.67635        -0.18457
C         34.08693        42.41096        -0.05610
C         35.25965        44.58235        -0.41088
C         34.05838        43.85034        -0.17985
C         35.28118        45.98730        -0.30877
C         34.06773        46.71593        -0.08104
C         35.35859        48.85712        -0.19150
C         34.10565        48.13988         0.03363
C         35.47160        50.24687        -0.05199
C         37.84603        23.06899         0.65256
C         36.61674        22.39276         0.53143
C         37.86539        24.48716         0.60912
C         36.64108        25.20937         0.44607
C         37.86077        27.38659         0.37187
C         36.64827        26.65997         0.34490
C         37.87005        28.80318         0.32170
C         36.63426        29.48907         0.27408
C         37.94386        31.70449         0.49331
C         36.60902        30.94130         0.50027
C         37.88734        33.14783         0.24907
C         36.65354        33.85040         0.29239
C         37.87109        35.98819         0.12567
C         36.63940        35.27285         0.26338
C         37.88606        37.42624         0.12245
C         36.66908        38.17609         0.59312
C         37.82342        40.29382        -0.18757
C         36.60720        39.60417         0.09479
C         37.81169        41.67552        -0.51275
C         36.51398        42.33940        -0.66407
C         37.77982        44.57856        -0.68426
C         36.49189        43.87313        -0.79486
C         37.75103        45.96601        -0.55977
C         36.51907        46.70643        -0.49404
C         37.73742        48.82323        -1.09709
C         36.52083        48.11214        -0.54468
C         37.77719        50.31153        -0.86557
C         36.67836        50.94433        -0.34668
C         40.40200        20.22481         0.71072
C         39.19437        20.84928         0.70982
C         40.40644        23.08888         0.66112
C         39.10197        22.31277         0.86522
C         40.31149        24.52511         0.37630
C         39.12828        25.20247         0.52612
C         40.37791        27.39338         0.09712
C         39.16433        26.70275         0.69439
C         40.35733        28.81264        -0.01955
C         39.13382        29.53444         0.20701
C         40.34457        31.65886        -0.16814
C         39.15327        30.93756         0.16155
C         40.34250        33.08736        -0.16953
C         39.10047        33.83656         0.02006
C         40.32021        35.95327        -0.33478
C         39.06732        35.24329        -0.04821
C         40.30502        37.43535        -0.41773
C         39.04749        38.15695        -0.14418
C         40.29103        40.27566        -0.57714
C         39.06992        39.57703        -0.23170
C         40.27122        41.71700        -0.72472
C         39.02716        42.41134        -0.68336
C         40.26001        44.55277        -0.65478
C         39.01625        43.84824        -0.70080
C         40.27919        45.97191        -0.50779
C         39.01337        46.68956        -0.35629
C         40.29631        48.84750        -0.84716
C         39.01653        48.19518        -0.55976
C         40.31404        50.27086        -1.24371
C         38.98642        51.03864        -1.43777
C         40.27051        53.14344        -0.80527
C         39.10060        52.49766        -1.05397
C         42.89680        20.25895         0.63955
C         41.65541        20.94194         0.62810
C         42.84070        23.01545         0.06069
C         41.65218        22.34148         0.40020
C         42.75526        24.42058        -0.41024
C         41.49898        25.20693        -0.17873
C         42.78260        27.36086        -0.45759
C         41.54923        26.68391        -0.16052
C         42.75120        28.77552        -0.59560
C         41.55574        29.50592        -0.38881
C         42.75134        31.68008        -0.67979
C         41.55436        30.95388        -0.45067
C         42.78732        33.08810        -0.54201
C         41.56515        33.76708        -0.32194
C         42.88830        35.96799        -0.18546
C         41.59435        35.22151        -0.09460
C         42.87592        37.47129        -0.27258
C         41.57552        38.20009        -0.28264
C         42.73503        40.26589        -1.24161
C         41.50477        39.60670        -0.69314
C         42.76171        41.73715        -0.93704
C         41.50887        42.42396        -0.81452
C         42.73312        44.56571        -0.78673
C         41.50006        43.84794        -0.73988
C         42.72653        45.99089        -0.67519
C         41.48131        46.69890        -0.51631
C         42.73854        48.85987        -0.39612
C         41.47018        48.13976        -0.63206
C         42.78060        50.31558        -0.47348
C         41.60225        51.03773        -0.95685
C         42.70723        53.11866        -0.26297
C         41.54063        52.47655        -0.69681
C         44.08265        20.95006         0.48817
C         45.32380        23.06626         0.04063
C         44.09496        22.34362         0.18193
C         45.32204        24.43310        -0.49492
C         44.01552        25.18437        -0.67646
C         45.26907        27.35317        -0.76405
C         44.01626        26.65206        -0.62201
C         45.27351        28.76473        -0.93192
C         43.97759        29.45751        -1.04760
C         45.27004        31.68172        -0.97520
C         43.97969        30.97734        -1.08235
C         45.26275        33.09790        -0.89235
C         44.03565        33.82670        -0.70659
C         45.27003        35.97440        -0.93367
C         44.08289        35.22995        -0.63103
C         45.26046        37.39986        -0.99735
C         44.08607        38.16489        -0.76815
C         45.26559        40.29114        -1.14442
C         44.04627        39.55089        -0.97527
C         45.25128        41.72078        -1.12570
C         43.97772        42.42354        -0.98457
C         45.16101        44.57538        -1.22374
C         43.97057        43.85870        -0.93401
C         45.02741        45.96116        -1.38846
C         43.93821        46.69151        -0.89277
C         45.33229        48.90685        -0.36170
C         44.07156        48.10829        -0.48501
C         45.19102        50.24242         0.11342
C         43.94515        50.99764        -0.10759
C         43.89928        52.42062        -0.04171
C         47.77099        23.13137         0.12287
C         46.59274        22.53342         0.45908
C         47.74164        24.34784        -0.78221
C         46.58919        25.23498        -0.25700
C         47.72576        27.37415        -0.89208
C         46.52694        26.66387        -0.75515
C         47.72814        28.79918        -0.92493
C         46.48578        29.49965        -0.96972
C         47.71603        31.66577        -0.85641
C         46.48142        30.95370        -0.97398
C         47.72326        33.09680        -0.88012
C         46.49397        33.81380        -0.94657
C         47.73601        35.91753        -1.19106
C         46.50014        35.23961        -1.06877
C         47.75697        37.33425        -1.57952
C         46.45217        38.12541        -1.47281
C         47.71702        40.30977        -1.30883
C         46.50230        39.59950        -1.30905
C         47.71919        41.72986        -1.14630
C         46.47710        42.42918        -1.17805
C         47.82857        44.66473        -0.96629
C         46.47929        43.90145        -1.32203
C         47.83536        46.09902        -0.54870
C         46.89277        47.01862        -0.94379
C         47.64930        48.87955         0.48094
C         46.62797        48.29824        -0.30681
C         47.45164        50.15711         1.03159
C         46.28148        50.85713         0.76596
C         50.31923        24.50172        -0.51751
C         49.04803        25.13948        -0.91753
C         50.34862        27.40077        -0.89297
C         49.02073        26.63512        -1.02407
C         50.18018        28.84700        -0.50256
C         48.96640        29.52649        -0.73958
C         50.14903        31.67836        -0.43823
C         48.94214        30.95610        -0.68303
C         50.15794        33.10711        -0.48253
C         48.94712        33.82113        -0.76306
C         50.17077        35.99424        -0.78185
C         48.95324        35.24002        -0.93714
C         50.25364        37.37221        -1.04362
C         49.05521        38.07884        -1.54589
C         50.23169        40.27160        -0.95367
C         49.01675        39.60439        -1.45000
C         50.14383        41.64448        -0.56272
C         48.94753        42.42189        -0.78271
C         50.06367        44.40275         0.19613
C         48.95183        43.81351        -0.49842
C         50.07263        45.79270         0.63080
C         49.00159        46.66967         0.15135
C         49.83012        48.44355         1.76969
C         48.92002        48.12850         0.66480
C         51.38036        25.23845        -0.07703
C         52.50670        27.40177         0.40651
C         51.39662        26.66906        -0.07106
C         52.51988        28.83838         0.30379
C         51.34596        29.55015        -0.11163
C         52.54205        31.70471         0.17943
C         51.34494        30.98255        -0.10580
C         52.55185        33.13136         0.11433
C         51.34988        33.81399        -0.19141
C         52.64916        36.02375        -0.14058
C         51.30909        35.28271        -0.18627
C         52.69247        37.35554        -0.75032
C         51.49386        38.10413        -0.97844
C         52.63929        40.31947        -0.58033
C         51.45945        39.56377        -0.94692
C         52.53032        41.56684         0.07904
C         51.27350        42.26509         0.04297
C         52.40893        44.23414         1.03945
C         51.19522        43.61258         0.47264
C         52.38325        45.64898         1.53929
C         51.09368        46.36264         1.39302
C         50.89552        47.63808         2.03402
C         54.77440        27.45802         1.32988
C         53.65235        26.75397         0.98299
C         54.83765        28.87422         1.15192
C         53.68692        29.56687         0.67043
C         54.94047        31.69422         0.80115
C         53.72783        30.99309         0.54715
C         55.00082        33.11913         0.55476
C         53.80903        33.84034         0.25120
C         55.14227        35.89236        -0.07835
C         53.88903        35.23260        -0.01730
C         55.18587        37.28211        -0.49533
C         53.99602        37.82767        -1.02497
C         55.10081        40.29089        -0.10198
C         53.95856        39.86318        -0.80893
C         54.93937        41.46850         0.71364
C         53.68554        42.10390         0.72159
C         54.62459        43.89689         2.31252
C         53.48387        43.32073         1.52834
C         54.54041        45.32092         2.72902
C         53.46666        46.08798         2.46201
C         56.01170        29.60063         1.45849
C         56.06908        30.96853         1.26333
C         56.23433        33.81856         0.57164
C         56.31090        35.15768         0.24397
C         56.33757        38.12508        -0.34857
C         56.29970        39.49416        -0.15420
C         56.04102        42.06623         1.44804
C         55.92011        43.21162         2.16856
O         54.13387        38.94663        -1.86195
O         52.94268        45.31644         0.20263
O         39.87688        22.79585         2.00970
O         29.04117        34.33495         2.11508
O         46.95676        37.62462        -2.76100
O         29.64308        31.02982         1.47005
O         46.04033        46.69100        -2.00393
O         43.37560        48.30506         0.80869
O         42.33806        38.05640         0.97385
O         41.79590        24.61850        -1.51212
O         51.79124        35.91537         1.04628
O         30.65281        28.37139        -1.69817
O         43.82018        30.19351        -2.31645
O         37.28600        31.32164         1.74589
O         29.95079        42.24158         2.25285
O         40.29272        36.62921        -1.65567
O         44.75751        24.62303        -1.81994
O         49.25505        38.90769        -2.72345
O         49.06204        25.79681        -2.24804
O         29.90519        37.85801        -0.76831
O         53.55618        43.09372         2.97308
O         31.75769        38.80066         2.14277
O         33.51458        31.38702        -1.38557
O         49.57455        47.81443        -0.59513
O         47.40386        44.39058        -2.32951
O         41.21747        50.57702        -2.35701
O         36.35296        43.01750        -1.96527
O         38.94080        47.63898         0.78081
O         42.35192        35.53386         1.11938
O         30.20149        45.22888        -1.09229
O         46.79294        25.35640         1.18248
H         46.16374        26.02264         1.53007
O         42.59030        40.17953        -2.71716
H         43.35576        40.64588        -3.11719
O         36.83043        38.28433         2.06418
H         36.00636        38.68079         2.42076
O         28.15972        33.42995        -1.22995
H         27.36732        33.18561        -1.75367
O         27.34851        37.50018        -0.99108
H         28.15994        37.42278        -1.54585
O         39.34188        26.89392         2.14889
H         38.59756        26.44116         2.59984
O         37.74156        48.56664        -2.53692
H         37.99932        49.41062        -2.98993
O         50.94381        27.47892        -2.22894
H         50.60065        26.69738        -2.72672
O         38.75221        51.04888        -2.88927
H         39.64773        51.14687        -3.29752
O         47.40888        23.84467        -2.08542
H         47.65710        24.53724        -2.73990
H         27.12503        26.85332        -1.40154
H         25.94932        29.11979        -1.61033
H         25.89200        31.53858        -1.07450
H         25.72431        33.23780         0.63188
H         25.73267        35.67940         0.78892
H         25.85274        37.57459         1.52189
H         25.90970        39.97349         1.83496
H         25.69861        41.93775         1.12012
H         25.72439        44.38339         0.90201
H         26.94559        46.52919         0.76203
H         29.15547        25.57267        -0.92391
H         29.02227        47.80976         0.58675
H         32.88845        23.45040         0.10003
H         30.81871        24.65834        -0.32914
H         32.90093        49.91533         0.40293
H         30.77392        48.71864         0.52517
H         34.49871        22.52007         0.30382
H         34.61441        50.84105         0.29139
H         36.58676        21.29563         0.56835
H         36.68943        52.03253        -0.18765
H         40.44448        19.12558         0.68171
H         38.27462        20.25101         0.64514
H         40.25157        54.22836        -0.61784
H         38.18143        53.09600        -1.13339
H         42.91074        19.17265         0.80858
H         42.68524        54.20659        -0.10163
H         45.03347        20.40366         0.54628
H         44.79983        52.98819         0.22653
H         48.72316        22.67420         0.42604
H         46.61164        21.60156         1.04371
H         48.24348        50.63276         1.62570
H         46.17869        51.87969         1.15277
H         50.38912        23.40535        -0.53335
H         49.64982        49.33484         2.38689
H         52.26626        24.69372         0.27935
H         51.60341        47.93860         2.81940
H         55.64993        26.93550         1.74190
H         53.64759        25.66572         1.12811
H         55.36362        45.72423         3.33899
H         53.43471        47.11705         2.84916
H         56.89142        29.06199         1.83918
H         57.00364        31.49549         1.49690
H         57.16423        33.28322         0.80445
H         57.29143        35.65166         0.21939
H         57.31036        37.63497        -0.18857
H         57.24526        39.97591         0.13843
H         57.02972        41.59164         1.37074
H         56.80986        43.67043         2.62557
