         297
 CSIRO Nanostructure Databank - Neutral Graphene Oxide Data Set
C         30.57405        32.54199         1.71366
C         30.47025        33.70072         1.22303
C         30.23152        36.29384        -0.87067
C         30.28359        37.49270        -1.15106
C         30.42190        40.73821        -1.42495
C         30.37578        41.97000        -1.31838
C         32.84425        29.56673         2.20660
C         31.86143        30.34580         2.30789
C         32.70874        31.98950         0.76504
C         31.57587        31.57241         1.70710
C         32.75255        33.46860         0.32072
C         31.29650        34.05026        -0.05863
C         32.60521        36.11621        -0.97291
C         31.37587        35.56658        -0.20064
C         32.68518        37.59681        -1.04919
C         31.41784        38.43129        -0.86244
C         32.83788        40.49091        -1.44777
C         31.49494        39.75807        -1.56524
C         32.82011        42.00653        -1.30198
C         31.51209        42.71177        -0.67102
C         32.86413        44.72854        -0.80197
C         31.76946        44.16925        -0.87777
C         35.68244        27.91243         1.91337
C         35.11054        29.00412         1.21149
C         34.23691        30.05115         1.83840
C         35.26676        31.84269         0.24005
C         33.98925        31.19975         0.79072
C         35.08763        33.00656        -0.73696
C         33.70941        33.70852        -0.87096
C         35.16367        35.93452        -1.40129
C         33.81424        35.24544        -1.21771
C         35.19508        37.47235        -1.26531
C         33.98891        38.25882        -0.73344
C         35.30277        40.39727        -0.96124
C         34.07016        39.74738        -1.08300
C         35.45454        41.93262        -1.25520
C         34.13481        42.71642        -1.20110
C         35.33296        44.69187         0.07395
C         34.22800        44.19164        -0.78481
C         35.38967        45.92276         0.86840
C         38.04947        27.62817         2.09561
C         36.66958        27.15768         2.12599
C         38.11579        29.05365         1.68287
C         35.92915        29.36302         0.13195
C         37.66700        31.36913        -0.52403
C         36.27256        30.76883        -0.26872
C         37.75425        32.84862        -1.10119
C         36.40155        33.63359        -1.13297
C         37.68600        35.84685        -0.79950
C         36.45246        35.14015        -1.34684
C         37.67992        37.33723        -0.61010
C         36.50177        38.19722        -1.00334
C         37.65819        40.25441         0.07555
C         36.46602        39.63126        -0.63923
C         37.80910        41.73275        -0.33356
C         36.46224        42.43392        -0.19476
C         37.47666        44.09927         1.67995
C         36.35741        43.69349         0.62411
C         37.52231        45.63400         2.06668
C         36.31277        46.29759         1.59002
C         40.55529        24.92008         2.68142
C         39.54197        25.62192         2.55243
C         40.55345        27.67672         1.88956
C         39.23716        26.95805         2.17207
C         40.46212        28.92930         1.04969
C         39.09635        29.41441         0.55895
C         40.24034        31.37803        -0.59242
C         39.01041        30.93730         0.20654
C         40.28226        32.85494        -0.97470
C         39.00632        33.61062        -0.69005
C         40.28912        35.84189        -1.11743
C         39.02337        35.09867        -0.71604
C         40.23796        37.32727        -0.92363
C         39.00663        38.02400        -0.39512
C         40.25364        40.31139        -0.34639
C         38.98866        39.50720        -0.16211
C         40.28557        41.71681         0.19594
C         38.98444        42.45257         0.35676
C         40.08687        44.06324         2.17265
C         38.89868        43.65834         1.24083
C         40.18770        45.61407         2.26848
C         38.82579        46.33316         2.28120
C         40.12279        48.31756         1.76109
C         39.04256        47.76786         2.04248
C         43.09841        24.81470         2.33936
C         41.91353        25.58097         2.82847
C         42.89502        27.27960         1.11567
C         41.84394        26.87981         1.88507
C         42.85775        28.50298         0.23476
C         41.59024        29.27485         0.12886
C         42.87244        31.35435        -0.89796
C         41.52613        30.60729        -0.57678
C         42.71489        32.80493        -0.28556
C         41.60263        33.57623        -1.04644
C         42.97749        35.80742        -0.80034
C         41.71384        35.10495        -1.39837
C         42.73638        37.24057        -0.20915
C         41.54713        38.04181        -0.75231
C         42.77793        40.24283        -0.07806
C         41.52331        39.50281        -0.43589
C         42.75415        41.61945         0.48329
C         41.44301        42.02681         1.14060
C         42.74003        44.24609         1.56976
C         41.52081        43.40478         1.87299
C         42.77729        45.63721         1.82390
C         41.48047        46.37430         1.98352
C         42.29143        48.24903         0.49382
C         41.38485        47.76280         1.39049
C         43.96312        25.14486         1.53110
C         45.35722        27.06030         0.35269
C         44.09826        26.40710         0.81173
C         45.38904        28.58559         0.35893
C         44.11745        29.26853        -0.03266
C         45.37188        31.38026        -0.47482
C         44.10157        30.59936        -0.33784
C         45.28839        32.88276        -0.35999
C         43.99501        33.59357        -0.16085
C         45.12046        35.81259        -0.53493
C         43.96951        34.95435        -0.01086
C         45.20967        37.22297         0.11588
C         44.03972        38.06271        -0.40967
C         45.21958        40.30478        -0.30288
C         44.03539        39.46925         0.22714
C         45.29115        41.61778         0.46110
C         44.03868        42.23870         0.89222
C         45.29386        44.09694         1.85322
C         43.99280        43.53750         1.34561
C         45.23630        45.58930         2.14125
C         44.01607        46.28873         2.16291
C         43.15771        48.67089        -0.32306
C         47.78905        27.19685         0.24695
C         46.74120        26.57437         0.43332
C         48.11020        28.63341         0.51823
C         46.68397        29.33149         0.36284
C         47.87304        31.54454         0.30012
C         46.74076        30.67717        -0.34833
C         47.83821        32.96392        -0.27880
C         46.53163        33.69099        -0.12269
C         47.78092        35.89777        -0.55872
C         46.49385        35.15472        -0.42531
C         47.71628        37.38872        -0.77460
C         46.50575        38.03336        -0.11429
C         47.70038        40.26387        -0.83213
C         46.51275        39.52872        -0.19242
C         47.71632        41.86183        -0.35294
C         46.48279        42.29211         0.46883
C         47.87466        44.33336         1.28585
C         46.50638        43.67380         0.99884
C         47.69566        45.43409         2.26288
C         46.56684        46.01592         2.30947
C         50.38679        28.99652        -0.79722
C         49.13781        29.36193        -0.29520
C         50.44618        31.62507        -0.28863
C         49.20655        30.83595         0.02030
C         50.38489        33.13622        -0.10706
C         49.07937        33.78721        -0.43000
C         50.19896        36.01746        -0.04648
C         49.00387        35.27446        -0.40764
C         50.08569        37.39619         0.17712
C         48.96113        38.15465        -0.30935
C         50.22242        40.38658        -0.79259
C         48.99705        39.50820        -0.55261
C         50.06697        41.32807         0.39181
C         48.97729        42.21659         0.44993
C         50.35554        43.69309         1.63480
C         49.05987        43.46384         1.15307
C         51.52316        29.51985        -0.97981
C         52.79154        31.83800        -0.71822
C         51.61290        31.01761        -1.18749
C         52.74816        33.05599        -0.49094
C         51.66264        33.94731        -0.06315
C         52.27544        36.27532        -1.13124
C         51.63655        35.46373        -0.03842
C         52.36314        37.40198        -1.62080
C         51.67590        38.63464        -1.90068
C         52.59001        40.27032        -0.16363
C         51.60369        39.68378        -0.96032
C         52.87577        41.37686         0.40749
C         51.97902        42.02917         1.28341
C         51.57711        43.36603         1.47559
O         46.81916        38.86340         1.06488
O         35.35991        44.86459        -1.36560
O         40.59060        30.50550        -1.69732
O         41.00028        32.95895        -2.22273
O         45.36053        32.21912        -1.67114
O         40.43278        41.45574        -1.22601
O         35.89596        35.54885        -2.60987
O         39.13573        43.84216        -0.17203
O         32.29194        39.94383        -2.72698
O         37.42463        29.92282         2.21413
O         40.68089        29.01844         2.48033
O         40.97158        46.17945         3.35072
O         43.08563        31.38305        -2.25093
O         36.93469        30.66499        -1.57162
O         50.83358        41.12780         1.53790
O         42.84472        41.40852        -0.95525
O         35.91997        38.04718        -2.35646
O         45.94178        29.20721         1.59946
O         44.45898        26.46291        -0.58945
O         40.00701        36.74184        -2.22891
O         51.00570        33.50869         1.16527
O         32.99156        30.95873        -0.23371
O         35.58565        32.87547        -2.08792
O         48.44406        33.12805        -1.58686
O         42.11424        43.17914         3.15913
O         50.26260        31.03094         1.02645
O         33.38351        42.64801        -2.46598
O         44.19345        35.91176        -1.74753
O         35.77156        42.44229         1.08009
O         39.20236        38.55253         0.94344
O         46.46893        34.58448         1.01598
O         47.10516        44.61336         0.08708
O         32.87226        35.51907        -2.29203
O         41.74911        38.98709        -1.82277
O         47.54614        40.26505        -2.24139
O         38.00372        45.90133         3.38640
O         41.92160        28.24765        -0.86754
O         37.35344        36.44426         0.49938
O         39.08805        34.35649         0.54730
O         47.68074        42.63115        -1.54307
H         47.39284        42.00486        -2.26459
O         34.13101        38.18291         0.73119
H         33.32148        38.58887         1.12349
O         47.18432        30.35186        -1.67542
H         46.84795        31.04755        -2.29037
O         38.87192        28.67217        -0.65367
H         39.55499        28.98184        -1.30917
O         39.72053        43.59696         3.46994
H         40.59648        43.43677         3.92973
O         39.07233        31.73363         1.38693
H         38.34080        31.47395         1.99700
O         50.03263        41.05423        -2.05828
H         49.06411        40.99477        -2.33061
O         42.07944        26.02724         4.13912
H         42.07285        25.26518         4.75322
O         41.92103        35.20489        -2.79175
H         41.42109        34.48616        -3.24151
O         42.21799        32.57235         1.05976
H         42.17211        33.42245         1.54684
O         37.35755        40.21199         1.47648
H         37.72565        39.37198         1.84111
O         45.08260        36.99858         1.53740
H         45.67569        36.25053         1.78319
O         31.53101        42.43241         0.70334
H         30.74600        42.82880         1.13412
O         35.94075        32.46038         1.36325
H         35.77702        31.91696         2.17887
O         45.51027        43.42218         3.12725
H         44.64714        43.37789         3.59685
O         30.73481        33.47359        -1.17468
H         30.91424        32.51163        -1.20654
O         44.11816        39.40994         1.65854
H         44.99785        39.02904         1.90156
O         44.29630        38.25121        -1.80024
H         43.53895        38.74561        -2.20130
O         35.93341        42.08061        -2.58364
H         35.15173        42.10509        -3.18231
O         38.11911        41.67752        -1.72442
H         38.39026        42.56653        -2.03766
O         37.12747        43.40377         2.86135
H         37.86331        43.50777         3.51241
O         48.49259        28.80096         1.87162
H         47.67939        28.71674         2.42283
O         51.32844        31.31688        -2.52220
H         52.01884        30.94312        -3.10724
O         38.06888        32.67153        -2.49634
H         37.31755        32.19769        -2.92097
O         52.32206        35.83198         1.18144
H         52.08951        35.16312         1.86455
O         45.01888        40.62834        -1.68244
H         45.86755        40.47309        -2.18664
O         31.45938        36.12227         1.11724
H         30.79046        35.65279         1.67378
O         44.06699        47.56051         2.58067
H         43.19283        47.99917         2.56105
O         34.84669        30.63165         2.99166
H         35.42521        29.95738         3.41286
O         47.65797        31.61852         1.70919
H         48.53074        31.54725         2.15822
O         36.42751        28.39349        -0.60943
H         37.02515        28.77283        -1.30242
O         51.00424        38.06832         0.88454
H         51.70772        37.44311         1.20450
O         33.27929        34.22226         1.41404
H         32.68057        34.14103         2.18696
O         50.82364        38.62088        -2.91673
H         50.35224        39.49943        -2.95050
O         33.08504        33.06360        -1.97741
H         33.68147        33.14657        -2.75461
O         47.60388        37.56154        -2.20177
H         47.51319        38.53914        -2.40790
O         31.35073        38.76759         0.53879
H         31.20310        37.91446         1.02714
O         41.22501        41.06816         2.20566
H         41.65116        41.48024         3.00751
O         42.42540        37.07561         1.18483
H         43.26696        37.12431         1.70417
