         276
 CSIRO Nanostructure Databank - Neutral Graphene Oxide Data Set
C        -11.11177         0.66541        -0.03534
C        -10.00162         1.58521        -0.26965
C         -8.66042         0.95386        -0.35145
C         -7.65142         1.56011        -1.27983
C         -6.37574         0.77135        -1.34996
C         -5.12428         1.48909        -0.89196
C         -3.81429         0.78691        -1.29199
C         -2.67047         1.66218        -0.84485
C         -0.82061         0.45956        -1.08566
C          0.06144         1.44014        -1.84956
C          1.40839         0.74568        -2.08793
C          2.64583         1.38357        -1.49822
C          3.94721         0.80479        -2.07911
C          5.21130         1.57934        -1.60348
C          6.51437         0.83824        -1.41444
C          7.66170         1.55885        -0.76899
C          8.97874         0.80712        -0.62342
C          9.93637         1.50099         0.38299
C         11.18448         0.69175         0.64317
C        -10.07389         2.94425        -0.37287
C         -8.88404         3.75507        -0.61705
C         -7.70044         3.10533        -1.32844
C         -6.38525         3.69352        -0.83172
C         -5.13058         2.96804        -1.27710
C         -3.82852         3.68630        -1.46636
C         -2.54374         2.94591        -1.25406
C         -1.21896         3.64186        -1.35917
C          0.08465         2.86556        -1.26639
C          1.24700         3.50554        -0.94238
C          2.55728         2.76115        -0.88440
C          3.85163         3.51411        -0.46793
C          5.13667         2.99066        -1.11159
C          6.41823         3.73200        -0.74058
C          7.59351         2.86756        -0.37799
C          8.73063         3.57827         0.23057
C         10.12195         2.98900         0.03489
C         -8.84743         5.09003        -0.34875
C         -7.65930         5.96701        -0.72639
C         -6.36315         5.13809        -0.48992
C         -5.05199         5.80988        -0.66179
C         -3.79403         5.08874        -0.96455
C         -2.50894         5.81085        -0.76938
C         -1.22926         5.13375        -1.18957
C         -0.00431         5.78967        -0.64321
C          1.23603         4.95535        -0.51621
C          2.51791         5.73829        -0.51475
C          3.81441         5.02665        -0.59675
C          5.01467         5.85697        -0.04271
C          6.36606         5.09438        -0.02979
C          7.16848         5.18059         1.23831
C          8.51702         4.63988         1.05589
C         -7.74290         7.41452        -0.18093
C         -6.79101         8.03237         0.56041
C         -4.90298         6.96187         0.03448
C         -3.82865         7.93110        -0.19600
C         -2.56579         7.34325        -0.84658
C         -1.27855         8.05788        -0.39278
C          0.01678         7.29926        -0.49687
C          1.22522         7.85510         0.20019
C          2.50772         7.11448         0.11683
C          3.53898         7.45120         1.21555
C          4.60113         6.40113         1.29103
C          5.26641         6.09628         2.59711
C          6.71029         5.69997         2.40003
C         -6.44736         9.40929         0.95448
C         -5.15902         9.82874         1.10407
C         -3.90003         9.26685         0.48676
C         -2.56624         9.80511         0.87436
C         -1.38066         9.24212         0.52282
C         -0.08258         9.84802         1.07303
C          0.99551         8.80778         1.32469
C          1.76107         8.73098         2.43317
C          2.83391         7.65953         2.56640
C          3.90848         7.94121         3.59661
C          5.05270         7.24001         3.57691
C        -10.89780        -0.53245         0.55328
C         -9.57120        -0.82519         1.24123
C         -8.38903        -0.30344         0.41156
C         -7.32143        -1.23825        -0.03111
C         -6.40033        -0.76775        -1.16578
C         -5.01439        -1.39650        -1.05213
C         -3.70463        -0.66773        -0.75565
C         -2.46539        -1.41468        -1.35884
C         -1.07389        -0.80774        -1.48980
C         -0.01383        -1.49297        -2.39639
C          1.38156        -0.76188        -2.31213
C          2.69319        -1.52666        -2.06841
C          3.97551        -0.73732        -1.91020
C          5.11166        -1.35752        -1.09113
C          6.47701        -0.67156        -1.34930
C          7.75616        -1.47139        -1.00847
C          8.83131        -0.68118        -0.22548
C         10.21331        -1.39504        -0.33589
C         11.25243        -0.63415         0.46209
C         -9.34918        -2.23910         1.69727
C         -8.24982        -2.99384         1.42352
C         -7.29611        -2.56089         0.35603
C         -6.18584        -3.40881        -0.09211
C         -5.11398        -2.89149        -1.07303
C         -3.77684        -3.64628        -0.99429
C         -2.53549        -2.90764        -1.44096
C         -1.23986        -3.69216        -1.58943
C          0.04543        -3.02177        -2.05361
C          1.42285        -3.78261        -1.92929
C          2.66789        -2.95073        -1.59780
C          3.83831        -3.59446        -1.30019
C          5.15653        -2.88154        -1.31059
C          6.43292        -3.63469        -1.02741
C          7.48800        -2.81728        -0.28117
C          8.82927        -3.52135        -0.08258
C         10.02915        -2.84441         0.03167
C         -8.01240        -4.12536         2.34651
C         -7.44401        -5.29713         1.97589
C         -6.09741        -4.72665         0.26811
C         -4.80218        -5.36692         0.62420
C         -3.66150        -4.94160        -0.25931
C         -2.30213        -5.47285         0.03870
C         -1.13399        -4.92312        -0.71066
C          0.06678        -5.81033        -1.00920
C          1.31698        -4.95187        -0.92565
C          2.56283        -5.57880        -0.44275
C          3.87975        -5.10741        -1.04030
C          5.07853        -5.59778        -0.22164
C          6.42033        -5.17183        -0.79165
C          7.57193        -5.63360         0.15221
C          8.79337        -4.91773         0.13462
C         -6.97794        -6.44307         2.74009
C         -5.79662        -7.08700         2.45759
C         -4.66920        -6.47641         1.65684
C         -3.36939        -7.27007         1.61833
C         -2.26488        -6.82908         0.70238
C         -1.19819        -7.79711         0.29127
C          0.06198        -7.16863        -0.23925
C          1.26774        -7.65096         0.56380
C          2.54101        -6.91634         0.21029
C          3.67286        -7.24029         0.88336
C          4.97163        -6.66293         0.61611
C          6.14721        -7.48399         1.14705
C          7.42783        -6.73799         0.94492
C         -5.52276        -8.31778         3.17730
C         -4.38307        -9.04924         3.05849
C         -3.30390        -8.65758         2.17777
C         -2.17482        -9.41038         2.04688
C         -1.22623        -9.21991         0.88719
C          0.15860        -9.83457         0.94774
C          1.30624        -9.19115         0.61503
C          2.56174        -9.92398         0.35754
C          3.74750        -9.44547         0.82293
C          5.10792        -9.73439         0.38483
C          6.14649        -8.86779         0.47712
O          7.17135         5.65313        -1.14388
O         -1.18334         4.57856        -2.51665
O          2.26313         8.23482        -0.77239
O          3.68302        -1.40084        -3.15782
O         -0.76026        -8.03682        -1.08894
O          3.24045         5.58865        -1.79423
O         -4.66714         3.33734        -2.61931
O         -0.39639         8.17947        -1.56425
O         -2.82211        -2.08190        -2.61651
O         -7.13779         1.08480        -2.55930
O          6.90950         4.45516        -1.96127
O         -4.46053        -5.07672         2.03314
O         -3.04014         5.12171         0.38135
O         -4.17733         9.14301        -0.96573
O         -2.19946        -6.57101         2.15073
O          5.24975         2.73460        -2.51915
O         -7.91754         0.99093         0.97360
O          0.39725         5.20502         0.65379
O         -1.35943        -4.54989         0.67652
O         -6.40695         4.10926         0.56380
O         -3.91986        -4.94932        -1.68709
O         -5.79085         7.18048         1.07376
O          1.81987        -4.59796         0.38791
O          2.49635         1.52250        -0.05852
O          3.63834        -8.36362         1.74125
O          6.58529        -5.87066        -1.97131
O         -1.64416         1.05151        -0.12683
O          6.73634         0.00981        -2.60814
O          6.09732        -3.25145        -2.38470
O         -7.23384        -5.45449         0.58727
O          1.53145         0.18737        -3.40911
O         -0.81132        -3.79437        -2.96245
O          8.32209        -1.83861        -2.28518
H          7.60706        -2.29707        -2.79788
O         -2.70907         7.55053        -2.26271
H         -2.94141         8.49555        -2.40492
O          6.04404        -7.67356         2.57245
H          5.18087        -8.11858         2.74555
O          8.44695        -0.77861         1.16207
H          8.82381        -0.02220         1.67835
O         -9.63646        -0.08139         2.48920
H         -9.08567         0.72912         2.36432
O          1.71471        -4.28475        -3.23488
H          0.93781        -4.81410        -3.52995
O          2.18698         6.39479         2.89116
H          1.67723         6.50889         3.72033
O          5.15077         6.99802        -0.91359
H          4.66851         6.80085        -1.75359
O         -7.72531         6.18175        -2.16001
H         -7.81961         5.30116        -2.60484
O          4.17648         8.70784         0.90321
H          4.65180         8.57171         0.04718
O         -0.60056         1.59146        -3.11998
H         -0.27831         0.86294        -3.70958
O          0.92779        -7.23438         1.91919
H          1.70703        -7.41416         2.48824
O         10.64205         3.22956        -1.25877
H         10.24033         2.58111        -1.88526
O         -5.63514        -3.27695        -2.38570
H         -4.90522        -3.14773        -3.03025
O         -7.84286         3.48881        -2.71909
H         -7.36011         2.81681        -3.25877
O          3.88813         1.07601        -3.48219
H          3.69913         0.22934        -3.95512
O         -7.06634        -1.29286        -2.33598
H         -6.50056        -1.12350        -3.11789
O          4.59023         4.92678         3.17783
H          3.62214         5.13177         3.16128
O          9.58724         0.85826        -1.93097
H          8.96973         0.41915        -2.56138
O          6.85661        -2.68241         1.02194
H          7.47364        -2.16067         1.59401
O         10.78341        -1.43429        -1.66285
H         10.08963        -1.78135        -2.27506
O          4.78507        -1.09485         0.29097
H          5.41057        -1.63370         0.84735
O          4.00860        -5.78556        -2.30169
H          4.98644        -5.79936        -2.53584
O         -0.34355        10.61781         2.23986
H         -0.64556        10.01897         2.95253
O         -0.42322        -1.34675        -3.75467
H         -1.23776        -1.89401        -3.86485
O         -1.90562       -10.03870        -0.12856
H         -1.44431        -9.86772        -0.98136
O         -5.17698         1.44231         0.55859
H         -6.11835         1.53593         0.86257
O          4.03267         3.29965         0.94978
H          3.64747         2.41983         1.17432
O          9.26601         1.58744         1.69469
H          9.91097         1.95765         2.33387
O         -3.77702         0.69034        -2.72578
H         -3.88229         1.59642        -3.10477
O          0.00076        -6.15058        -2.41049
H         -0.61903        -6.90938        -2.51336
O         -3.52699        -0.67702         0.67278
H         -4.10188         0.03355         1.05358
H         12.17305        -1.17473         0.73371
H         12.01635         1.21973         1.13898
H         10.82267         3.45583         0.78048
H          9.35765         5.09168         1.60589
H          7.37101         5.72567         3.28095
H          5.83608         7.43385         4.32618
H          3.74810         8.73748         4.34066
H          1.60794         9.44389         3.25994
H          0.31704        10.55471         0.29668
H         -2.54016        10.66591         1.56326
H         -5.01721        10.84743         1.50483
H         -7.25384        10.09748         1.25639
H         -8.54330         8.01301        -0.64170
H         -9.73080         5.56697         0.10493
H        -11.03534         3.46108        -0.23075
H        -12.11916         0.96070        -0.36631
H        -11.73878        -1.22085         0.72356
H        -10.01838        -2.56898         2.50696
H         -8.28490        -3.96292         3.39964
H         -7.62289        -6.85506         3.53337
H         -6.32043        -8.67986         3.84334
H         -4.27719        -9.99019         3.61771
H         -2.12150       -10.37744         2.57148
H          0.17580       -10.93140         1.05259
H          2.53041       -10.81021        -0.29400
H          5.26684       -10.68593        -0.14749
H          7.10498        -9.18779         0.03844
H          8.21688        -6.94758         1.68645
H          9.74209        -5.45849         0.28291
H         10.94129        -3.44024         0.20379
