         236
 CSIRO Nanostructure Databank - Neutral Graphene Oxide Data Set
C        -11.03402         0.78583        -0.83585
C        -10.12417         1.49516         0.14310
C         -8.82958         0.72385         0.44446
C         -7.57210         1.49631         0.76633
C         -6.27327         0.74753         0.81709
C         -5.03183         1.52166         0.89685
C         -3.76987         0.76813         0.80734
C         -2.49194         1.50541         0.98268
C         -1.27440         0.73534         1.39025
C          0.02925         1.48347         1.29136
C          1.28262         0.72061         1.07232
C          2.49772         1.35708         0.69816
C          3.72393         0.64891         0.71812
C          4.97150         1.33014         0.27781
C          6.25468         0.58692         0.44744
C          7.52703         1.37378         0.57886
C          8.77583         0.61791         0.27362
C          9.94360         1.37052        -0.38469
C         10.87233         0.54813        -1.16596
C         -9.84047         2.93621        -0.24073
C         -8.70110         3.63124         0.06683
C         -7.50237         2.96427         0.57632
C         -6.30544         3.64082         0.70754
C         -5.04766         2.90416         0.84163
C         -3.77308         3.60515         0.77977
C         -2.56581         2.98099         0.99153
C         -1.28606         3.71744         0.88005
C          0.00921         2.96198         1.02502
C          1.18882         3.54768         0.32382
C          2.44172         2.75298         0.15413
C          3.71240         3.56790        -0.14826
C          4.99411         2.82615         0.21227
C          6.16348         3.51447         0.23179
C          7.49140         2.85481         0.36808
C          8.64647         3.51916        -0.30510
C          9.75556         2.79802        -0.68896
C         -8.58092         5.04179        -0.29159
C         -7.45622         5.77376        -0.07578
C         -6.33137         5.16129         0.79018
C         -4.98489         5.81123         0.57263
C         -3.81693         4.98144         0.22294
C         -2.54900         5.63903        -0.19312
C         -1.26064         5.01553         0.17480
C         -0.06932         5.70000         0.01338
C          1.19800         5.03172         0.20675
C          2.38822         5.72069         0.17574
C          3.64096         4.95665         0.57501
C          4.92102         5.76284         0.33711
C          6.20155         5.00127         0.19269
C          7.37779         5.65515        -0.42667
C          8.52427         4.90417        -0.66850
C         -7.42194         7.22968        -0.33276
C         -6.40754         7.90146        -0.96528
C         -4.77686         7.17295         0.80982
C         -3.69449         7.87597         0.16598
C         -2.57877         7.12180        -0.53075
C         -1.26173         7.83239        -0.35519
C         -0.06694         7.13168        -0.24946
C          1.18652         7.82890        -0.30207
C          2.40173         7.13649        -0.10780
C          3.64745         7.82475        -0.30473
C          4.87083         7.14032        -0.20042
C          6.09335         7.76986        -0.59251
C          7.29217         7.04083        -0.71012
C         -6.20029         9.35194        -0.73443
C         -5.04318         9.93624        -0.33282
C         -3.75258         9.24615        -0.19112
C         -2.55491         9.91368        -0.54160
C         -1.28771         9.26010        -0.50131
C         -0.05320         9.93773        -0.63518
C          1.17358         9.24674        -0.56616
C          2.42035         9.90997        -0.75553
C          3.62873         9.21926        -0.67797
C          4.88385         9.86616        -0.95932
C          6.05608         9.16662        -0.94644
C        -10.94159        -0.52778        -1.13232
C         -9.78681        -1.33032        -0.74743
C         -8.63891        -0.58854        -0.23334
C         -7.36968        -0.98508        -0.65111
C         -6.16932        -0.62258         0.13234
C         -4.79464        -1.27847        -0.11038
C         -3.81921        -0.73948         0.99226
C         -2.44471        -1.40726         0.92118
C         -1.28406        -0.74753         1.23497
C         -0.01721        -1.47096         1.73106
C          1.27667        -0.63879         1.45072
C          2.55225        -1.15740         1.74715
C          3.78170        -0.64911         1.28445
C          5.08861        -1.45583         1.56803
C          6.31183        -0.84818         0.86657
C          7.47542        -1.52491         0.57728
C          8.66170        -0.83262         0.08498
C          9.75377        -1.52279        -0.43230
C         10.82494        -0.81071        -1.09125
C         -9.78285        -2.71243        -0.83382
C         -8.67073        -3.58272        -0.47472
C         -7.51976        -3.09226         0.36785
C         -6.13498        -3.57391        -0.08723
C         -4.84856        -2.81023        -0.05177
C         -3.61056        -3.53102         0.33585
C         -2.46538        -2.85742         0.73042
C         -1.18996        -3.54651         0.84076
C         -0.00263        -2.92946         1.20961
C          1.23363        -3.67879         1.05803
C          2.46025        -3.29715         1.55142
C          3.71843        -3.72354         0.97755
C          4.99100        -2.99249         1.24579
C          6.27592        -3.70985         0.78451
C          7.64875        -3.00250         0.91136
C          8.80059        -3.70442         0.17904
C          9.78035        -2.97107        -0.40921
C         -8.60808        -4.91887        -0.76372
C         -7.30989        -5.70997        -0.72513
C         -6.14503        -5.05962         0.01041
C         -4.98907        -5.72315         0.25191
C         -3.63987        -5.02741         0.06949
C         -2.48313        -5.77397         0.77044
C         -1.23084        -4.98244         0.43895
C          0.01875        -5.70141         0.13079
C          1.30591        -4.90095         0.13956
C          2.48536        -5.79062         0.57252
C          3.73288        -4.97662         0.41404
C          4.86539        -5.48869        -0.28306
C          6.06555        -4.79306        -0.19406
C          8.00700        -5.93946        -0.36840
C          8.93815        -5.17949         0.27362
C         -7.37301        -7.19924        -0.48318
C         -6.23406        -7.90344        -0.20040
C         -5.00048        -7.20748         0.25292
C         -3.68399        -7.95191         0.19760
C         -2.41280        -7.20611         0.24890
C         -1.24324        -7.85018        -0.05094
C          0.05540        -7.20572         0.35914
C          1.29561        -7.81924        -0.23978
C          2.48031        -7.10620        -0.17110
C          3.68360        -7.63189        -0.75094
C          4.76710        -6.75864        -0.94203
C          6.67407        -7.95042        -0.98844
C          7.77119        -7.36982        -0.38012
C         -6.14215        -9.34335        -0.35901
C         -4.94542        -9.99792        -0.46096
C         -3.67166        -9.32838        -0.33652
C         -2.46937        -9.90670        -0.69818
C         -1.21530        -9.21431        -0.55842
C          0.00231        -9.81198        -0.90733
C          1.25991        -9.13401        -0.80802
C          2.49742        -9.73084        -1.16892
C          3.71774        -9.03038        -1.12159
C          4.96427        -9.77007        -1.19438
C          6.25025        -9.33025        -0.96601
O         -7.25128        -1.55740        -1.86786
H         -6.34517        -1.94170        -2.00472
O         -5.59019         7.87572         1.63120
H         -6.23464         7.24025         2.03468
O         -3.34430         4.88440        -1.20627
O         -2.86640         7.23708        -1.97062
H         -3.15288         6.33167        -2.25550
O          1.46986         2.85636        -0.95787
O          5.82474        -7.12723        -1.76853
O          3.51470         4.68262         1.98410
H          4.38331         4.90877         2.39882
O         -4.44077        -7.80627         1.47688
O          2.58015        -2.31180         2.53731
O          1.58247        -4.45793        -1.20441
H          0.70607        -4.38323        -1.65433
O          5.83815         5.63338         1.48436
O          0.11223        -7.39808         1.81635
H          0.04366        -8.35904         1.99848
O         -0.83568        -5.26274        -0.96389
O        -10.89978         1.57545         1.37333
H        -10.24716         1.49563         2.11014
O         -5.59079         7.24767        -1.82954
H         -4.78468         7.77285        -2.04264
O         -7.66764        -2.75141         1.52722
O         -6.74240         5.49170         2.17011
H         -7.62145         5.08245         2.32456
O         -2.68617        -5.78250         2.18608
H         -3.40903        -6.42774         2.37792
O         -0.15730        -1.55308         3.16454
H         -0.32825        -0.63956         3.49187
O          5.73773        -3.89170         2.13154
O         -6.40795        -0.49049         1.55444
O         -8.45422         0.97110         1.84041
O         -2.94553         1.08658        -0.38861
O          7.66571         2.27577         1.71192
O          5.33914        -1.35541         2.98422
H          4.58324        -1.77911         3.44850
O         -0.47313         3.75913         2.13150
O          9.92824         1.03504         1.04817
O         -4.33493        -0.96243        -1.42926
H         -3.76706        -0.15586        -1.40176
O          7.06509        -5.13098        -1.08943
O         -5.44018        -3.26044        -1.35714
O         -3.43646        -5.20006        -1.36372
H         -4.00956        -4.53107        -1.81104
O         -6.87963        -5.64002        -2.14371
H         -5.95313        -5.95999        -2.19771
O         -0.59755         1.18383         2.59799
O          8.06017        -3.05942         2.29288
H          7.27295        -2.84475         2.84595
O         -4.31130        -1.09652         2.24194
O          2.41700        -6.06655         1.99036
H          1.58672        -6.57303         2.18426
O          3.77958         3.81924        -1.56442
H          2.90922         3.55104        -1.94676
O          5.63944         0.71688        -0.89548
H         11.57265        -1.41069        -1.63124
H         11.61119         1.04702        -1.81053
H         10.53601         3.30119        -1.28121
H          9.39002         5.38907        -1.14493
H          8.18858         7.55772        -1.08492
H          7.00164         9.66463        -1.20609
H          4.87667        10.93367        -1.22365
H          2.42416        10.98363        -0.99655
H         -0.04714        11.02573        -0.80001
H         -2.59508        10.98448        -0.79132
H         -5.03870        11.03007        -0.19509
H         -7.10155         9.98547        -0.78298
H         -8.14826         7.83593         0.23330
H         -9.43830         5.50101        -0.80661
H        -10.68430         3.49707        -0.67442
H        -11.91363         1.35569        -1.17369
H        -11.72971        -1.01052        -1.73144
H        -10.67323        -3.20656        -1.25570
H         -9.42914        -5.38796        -1.33087
H         -8.27049        -7.74187        -0.82080
H         -7.07691        -9.90151        -0.51807
H         -4.93876       -11.07344        -0.69328
H         -2.46065       -10.93123        -1.10068
H         -0.00803       -10.83831        -1.30453
H          2.50414       -10.78973        -1.47078
H          4.83495       -10.86332        -1.26186
H          7.02578       -10.09399        -0.79677
H          8.45529        -8.00355         0.20192
H          9.80657        -5.61873         0.78704
H         10.64398        -3.47695        -0.86604
