         272
 CSIRO Nanostructure Databank - Neutral Graphene Oxide Data Set
C        -10.93969         0.92841        -1.22909
C         -9.63177         1.63783        -1.54728
C         -8.51482         0.95149        -0.66659
C         -7.14843         1.58528        -0.74481
C         -6.04350         0.88711         0.00091
C         -4.63357         1.45173        -0.19633
C         -3.61678         0.85077         0.85450
C         -2.25117         1.49571         0.58427
C         -0.87922         0.80142         0.70894
C          0.06513         1.42376         1.73408
C          1.33600         0.62923         2.04398
C          2.65506         1.39688         2.17122
C          3.97731         0.65919         2.02847
C          5.17307         1.39714         1.45060
C          5.90383         0.58534         0.41330
C          6.56954         1.24167        -0.73500
C          7.36209         0.35273        -1.61127
C          8.74363         1.45519        -2.99303
C          9.81019         0.52249        -3.33732
C         -9.49272         3.08186        -1.16174
C         -8.25964         3.79942        -1.63787
C         -6.96875         2.98985        -1.26160
C         -5.58272         3.70358        -1.14987
C         -4.72605         2.98871        -0.07369
C         -3.62424         3.68544         0.65373
C         -2.29380         2.97567         0.73238
C         -1.03268         3.76350         1.09601
C          0.01874         2.90842         1.84439
C          1.33451         3.63664         1.87341
C          2.63440         2.88569         1.82204
C          3.94598         3.67209         1.77946
C          5.14236         2.88452         1.26458
C          6.06808         3.55780         0.26711
C          6.91843         2.70596        -0.67406
C          7.82636         3.41847        -1.68618
C          8.80018         2.76336        -2.63778
C         -8.17457         5.28212        -1.30625
C         -7.01562         5.90875        -1.01030
C         -5.67080         5.23432        -0.98845
C         -4.60806         5.88702        -0.10527
C         -3.48943         5.16187         0.53954
C         -2.58571         5.80241         1.55318
C         -1.32689         5.04092         1.89681
C         -0.08791         5.81199         2.28584
C          1.27769         5.12175         2.12172
C          2.51849         5.89727         1.77862
C          3.83553         5.15688         1.51202
C          4.88535         5.87462         0.69032
C          5.92580         5.03415        -0.02394
C          6.46664         5.50867        -1.32411
C          7.41220         4.80935        -2.00090
C         -6.37740         7.07224        -1.76698
C         -5.60742         8.04117        -0.87299
C         -4.78386         7.34361         0.17547
C         -3.67974         8.07714         0.89631
C         -2.68439         7.29993         1.73657
C         -1.47838         8.05914         2.22050
C         -0.15063         7.32395         2.25099
C          0.96084         7.97312         1.44204
C          2.27400         7.27325         1.19416
C          3.45293         8.05754         0.65325
C          4.71610         7.30991         0.27967
C          5.62634         7.85207        -0.85118
C          5.81766         6.74188        -1.91251
C         -5.07095         9.32600        -1.37821
C         -3.94002         9.89214        -0.89515
C         -3.23914         9.40788         0.31805
C         -2.04687        10.15063         0.90041
C         -1.46762         9.58197         2.17118
C         -0.49369        10.16490         1.21279
C          0.90285         9.49500         1.15069
C          1.70343         9.75963        -0.08667
C          3.08770         9.34751        -0.10354
C          3.97194         9.74408        -1.22242
C          5.09521         9.08847        -1.53923
C        -10.99544        -0.40988        -1.11203
C         -9.73041        -1.24196        -1.19632
C         -8.65872        -0.51157        -0.36931
C         -7.47884        -1.31359         0.09205
C         -6.18308        -0.56956         0.30739
C         -4.91971        -1.38377         0.47424
C         -3.62253        -0.67893         0.75487
C         -2.29689        -1.40132         0.68501
C         -0.96861        -0.71698         0.85413
C          0.39849        -1.40594         0.65494
C          1.38649        -0.85282         1.72099
C          2.70072        -1.61237         1.85643
C          4.01012        -0.87386         1.95779
C          5.31010        -1.59258         1.57867
C          6.32209        -0.81524         0.78741
C          7.41614        -1.51069        -0.00447
C          7.85912        -0.86124        -1.27767
C          8.86474        -1.53582        -2.11853
C          9.80195        -0.79058        -2.97081
C         -9.83358        -2.73454        -0.91129
C         -8.75597        -3.47852        -0.57762
C         -7.52411        -2.79873        -0.06055
C         -6.21906        -3.49651        -0.31099
C         -4.92746        -2.75251        -0.14185
C         -3.63095        -3.52666        -0.12122
C         -2.31503        -2.80466         0.16703
C         -1.05189        -3.58376         0.36905
C          0.29831        -2.94640         0.63413
C          1.50266        -3.77456         0.95227
C          2.72280        -3.09831         1.53507
C          4.03249        -3.83466         1.42082
C          5.40282        -3.14156         1.72156
C          6.62027        -3.81357         0.97820
C          7.56822        -3.00052         0.11387
C          7.99293        -3.68142        -1.20117
C          9.02290        -2.88364        -1.96198
C         -8.77636        -5.01304        -0.52428
C         -7.44413        -5.68032        -0.97938
C         -6.25915        -5.00170        -0.28587
C         -5.00332        -5.77058        -0.12194
C         -3.69598        -5.02111        -0.10845
C         -2.49462        -5.78596         0.33339
C         -1.16859        -5.05664         0.58710
C          0.08624        -5.89296         0.68281
C          1.45899        -5.30692         1.14683
C          2.69049        -5.88364         0.45488
C          3.99067        -5.12471         0.62775
C          5.24402        -5.90762         0.43967
C          6.59407        -5.28652         0.66264
C          7.59509        -5.93530        -0.25708
C          8.32439        -5.15315        -1.07296
C         -7.42616        -7.19712        -0.77022
C         -6.26847        -7.91193        -0.73991
C         -4.95349        -7.15502        -0.82701
C         -3.82851        -7.97538        -0.13871
C         -2.54094        -7.26818         0.16750
C         -1.31682        -8.01074        -0.35427
C         -0.13568        -7.01932        -0.35327
C          1.57065        -8.23232         0.68128
C          2.68243        -7.34765         0.10000
C          3.94817        -8.10523        -0.19732
C          5.22457        -7.37624         0.08610
C          6.47812        -8.09996         0.51835
C          7.67480        -7.47206        -0.26942
C         -6.16424        -9.37053        -0.86860
C         -5.01468       -10.08954        -0.73597
C         -3.77604        -9.47284        -0.19170
C         -2.46506       -10.14265         0.00508
C         -1.22189        -9.47337         0.08646
C          0.01661       -10.16952         0.15107
C          1.35211        -9.60214         0.12878
C          2.53407       -10.29319        -0.06071
C          3.88453        -9.63573        -0.36406
C          5.13760       -10.25851         0.24180
C          6.29903        -9.60800         0.44663
O         -4.67789        -6.90019        -2.15511
O          5.15315         0.81171        -0.84456
O         -5.42803         6.03279        -2.27787
O         -2.45923         5.02368         2.78105
O          6.44667        -0.94239         2.22197
O          1.21914        -3.44457        -0.42567
O         -1.63958        -8.18689        -1.75943
O         -6.81011         1.84060        -2.14675
O          4.32190         4.61712         2.78906
O          3.50353         1.14100         3.31049
O          7.47837         0.83835        -2.91650
O          1.18079         7.21261         0.20069
O         -0.73164        -5.63092         1.85136
O          4.77705        -7.56132        -1.28682
O          5.49782         6.96886         1.45936
O          4.67368        -5.06061        -0.64317
O         -0.47824         2.08291         2.91609
O         -3.29386         5.69017        -0.80030
O         -7.73129        -2.19429         1.25092
O          1.95976         3.24489         0.57293
O          3.25085        -3.88410         2.63650
O         -2.18452         2.34183        -0.59668
O          6.91644         4.54672         0.91667
O         -3.48063        -4.30766        -1.34768
O          8.50079        -2.11854         0.77059
O          1.08090        -7.98621         1.77571
O         -2.52013         7.63636         3.14212
O          0.95999        -0.39019         3.01912
O          2.15146         5.65481         3.15318
O         -9.04080         0.52480         0.59812
O          3.73281         9.32611         1.24494
O          3.36615        -1.41771         3.13467
O         -5.88520        -5.58541         1.01306
O         -4.20134        -8.68864         1.03894
O         -4.17497         9.29244         1.47704
O          8.30443         3.02204        -0.35406
O          5.91276         2.24107         2.34280
O         -5.56040        -2.84565        -1.45001
O         -2.70053        -6.68497         1.47304
O         -1.64377        -1.25476         2.00589
O         -4.40323        -1.32203         1.82662
O          2.45206        -6.31587        -0.89396
O         -1.42618        -3.07448        -0.95540
O         -0.01216         6.61404         3.50091
O          7.18437        -4.82123         1.88974
O         -4.87515         3.35033         1.32828
O         -6.34800         0.46103         1.34397
O         -6.09101         7.87134         0.50312
O          4.50377         6.38190        -2.37112
H          4.59022         5.77571        -3.13532
O         -0.43083         4.23067        -0.11938
H         -0.35207         3.45682        -0.72486
O         -9.24275        -1.24416        -2.56456
H         -9.33789        -0.33500        -2.94975
O          7.66140        -7.94083        -1.61457
H          6.77247        -7.75474        -1.99009
O         -7.27452        -5.45732        -2.39222
H         -6.41018        -5.86839        -2.65084
O          1.61879        -5.63584         2.52199
H          0.73839        -5.66146         2.95890
O          1.56229        10.13054         2.27068
H          1.00782        10.01694         3.07176
O         -4.17391         1.01846        -1.47905
H         -4.59384         1.58747        -2.17107
O         -8.26175         3.82854        -3.09907
H         -7.34594         4.01236        -3.40118
O          0.97457        -1.00069        -0.59398
H          1.19325        -1.81157        -1.11428
O          6.91263         8.16948        -0.31131
H          6.94848         7.80522         0.60630
O         -3.92662         1.20917         2.19034
H         -4.65421         0.62312         2.50807
O          4.00592        -9.92850        -1.78797
H          4.47034        -9.16287        -2.20108
O          6.75574        -3.61437        -1.98686
H          6.83945        -4.21300        -2.75846
O          6.63829        -7.76794         1.91476
H          7.46156        -8.17681         2.25321
O          5.66163        -3.36774         3.10435
H          4.90018        -3.01375         3.61721
O         -9.37253         1.41570        -2.93452
H         -8.80199         2.15346        -3.27383
O         -1.67997        10.18548         3.42535
H         -2.37930         9.66660         3.88075
O         -9.05580        -5.42949         0.81578
H         -8.30439        -5.17611         1.39267
O          0.32354        -6.79584        -1.46425
H         -0.92905        -7.74276        -2.28818
O         -4.92544         3.47478        -2.41295
H         -4.20269         4.13503        -2.50358
O         -0.17690         1.10265        -0.51456
H         -0.66514         0.72535        -1.27654
H         10.66054        -1.39491        -3.30861
H         10.68842         0.90902        -3.87742
H          9.76619         3.28926        -2.69944
H          7.76416         5.20953        -2.96574
H          6.42987         7.12729        -2.77078
H          5.71739         9.46273        -2.36668
H          3.67353        10.63018        -1.80301
H          1.23205        10.15226        -0.99732
H         -0.29496        11.22847         1.43904
H         -2.35446        11.20546         1.02427
H         -3.53791        10.79091        -1.38616
H         -5.53838         9.74779        -2.28160
H         -6.96047         7.54957        -2.58733
H         -9.02515         5.88414        -1.66350
H         -9.85474         3.35386        -0.15609
H        -11.85781         1.53173        -1.16743
H        -11.95919        -0.91052        -0.93226
H        -10.75534        -3.23655        -1.24666
H         -9.61141        -5.38528        -1.16684
H         -8.39692        -7.71888        -0.77989
H         -7.07706        -9.90456        -1.17818
H         -5.02113       -11.17099        -0.93923
H         -2.46532       -11.24506         0.04914
H         -0.04361       -11.27163         0.15255
H          2.49280       -11.37073        -0.29246
H          5.14099       -11.35840         0.30814
H          7.17689       -10.19934         0.75695
H          8.63972        -7.80502         0.19525
H          9.05222        -5.59557        -1.77174
H          9.80855        -3.41904        -2.51782
