         349
 CSIRO Nanostructure Databank - Neutral Graphene Oxide Data Set
C          1.62058         2.75097         2.21564
C          1.46481         3.91142         1.39583
C          2.78768         2.03607         2.21221
C          2.50590         4.39312         0.63707
C          1.09137         6.32785        -0.23962
C          1.10568         7.68181        -0.26423
C          2.31591         5.48020        -0.42964
C          2.32143         8.45067        -0.42559
C          1.15288        10.61836        -0.02892
C          1.15367        11.98605         0.01893
C          2.33475         9.87315        -0.35389
C          2.32308        12.77209        -0.26045
C          1.13108        14.91618         0.19130
C          1.14580        16.27719         0.39066
C          2.30017        14.17813        -0.17499
C          2.38341        17.01637         0.33826
C          2.46227        18.40209         0.81169
C          3.91330         2.47231         1.43112
C          3.78612         3.71638         0.68507
C          5.08755         1.72679         1.39744
C          4.88028         4.20849        -0.02175
C          3.56696         6.31251        -0.57779
C          3.53685         7.68695        -0.62703
C          4.83308         5.53049        -0.67715
C          4.82159         8.46994        -0.48276
C          3.51778        10.65338        -0.63608
C          3.53880        12.05859        -0.60307
C          4.73060         9.91072        -1.01203
C          4.78801        12.80357        -0.76309
C          3.49943        14.97652        -0.63615
C          3.52825        16.36959        -0.06317
C          4.81724        14.23015        -0.57110
C          4.81473        17.07633         0.11669
C          3.58739        19.13983         0.70595
C          4.80429        18.58411        -0.00259
C          6.24152         2.14311         0.65137
C          6.12615         3.43237        -0.08202
C          7.42135         1.43158         0.64766
C          7.45041         4.17730        -0.33337
C          6.16053         6.25987        -0.90698
C          6.09243         7.75936        -1.17213
C          7.42638         5.63847        -0.43648
C          7.24075         8.53631        -0.58663
C          6.03147        10.68655        -1.15849
C          6.01149        12.13940        -0.94209
C          7.29337         9.97526        -0.90963
C          7.26651        12.83519        -0.93788
C          6.02899        14.91507        -0.51443
C          6.08242        16.33330        -0.09668
C          7.28748        14.26982        -0.77213
C          7.34637        17.08874        -0.17712
C          6.12791        19.17506         0.39758
C          7.32704        18.49441         0.20091
C          8.68086         1.97518        -0.01256
C          8.65518         3.48826         0.24491
C          9.96490         1.32915         0.43171
C          9.84582         4.28575         0.71014
C          8.55244         6.36365        -0.06684
C          8.46788         7.84722        -0.08674
C          9.76000         5.77881         0.48645
C          9.69522         8.65175        -0.05649
C          8.47529        10.68446        -0.75678
C          8.47315        12.10990        -0.93000
C          9.71154         9.99873        -0.43297
C          9.74931        12.79983        -1.11515
C          8.49422        15.00716        -0.79814
C          8.53234        16.41385        -0.43810
C          9.74279        14.33894        -1.18433
C          9.80087        17.11833        -0.32103
C          8.58081        19.15662         0.37081
C          9.80260        18.50811         0.11691
C         11.15540         2.02383         0.56439
C         11.14938         3.49164         0.87699
C         12.39909         1.31768         0.55412
C         12.55248         4.14784         0.85108
C         10.73497         6.67293         0.93959
C         10.82513         8.04512         0.54270
C         12.70834         5.60125         0.93437
C         11.99923         8.83486         0.67761
C         10.95069        10.73387        -0.40843
C         10.98466        12.08226        -0.75894
C         12.15567        10.06923         0.04590
C         12.19197        12.83009        -0.37517
C         11.07775        15.09033        -1.13899
C         11.01057        16.48199        -0.55881
C         12.19367        14.32230        -0.43178
C         12.26804        17.15579        -0.40914
C         11.03035        19.19509         0.23815
C         12.27656        18.57356        -0.06177
C         13.65533         1.96210         0.35517
C         13.68130         3.37723         0.34533
C         14.87335         1.27821         0.06199
C         14.78747         4.07444        -0.31408
C         13.73949         6.31225         0.35947
C         13.88783         7.73251         0.50650
C         14.77267         5.58219        -0.40713
C         14.78131         8.50619        -0.23972
C         13.46481        10.68649        -0.14193
C         13.47362        12.10725        -0.30096
C         14.67156         9.94153        -0.33137
C         14.67925        12.85460        -0.34496
C         13.50155        15.01726        -0.49086
C         13.48528        16.45614        -0.52594
C         14.67932        14.29535        -0.45527
C         14.75582        17.15778        -0.51368
C         13.48147        19.26751        -0.02549
C         14.72313        18.66833        -0.63018
C         16.08627         1.97506        -0.22242
C         16.08197         3.39932        -0.42345
C         17.31819         1.30103        -0.35556
C         17.26365         4.13936        -0.64762
C         16.04286         6.29408        -0.63093
C         15.92697         7.75712        -0.83023
C         17.23384         5.60096        -0.77269
C         17.23362         8.51236        -1.03696
C         15.89690        10.72266        -0.61554
C         15.91711        12.16789        -0.29211
C         17.21035        10.00632        -0.81720
C         17.14400        12.88277        -0.15578
C         15.97474        14.98580        -0.80039
C         15.94004        16.47604        -0.55142
C         17.20191        14.27491        -0.27441
C         17.25668        17.19837        -0.71590
C         16.01071        19.30331        -0.18405
C         17.20769        18.64408        -0.25566
C         18.52459         2.01233        -0.57062
C         18.51169         3.44713        -0.68595
C         19.75689         1.31639        -0.62371
C         19.75283         4.16894        -0.81242
C         18.49831         6.33110        -0.90629
C         18.48275         7.74952        -0.94203
C         19.72170         5.60277        -0.90270
C         19.72772         8.52837        -0.79449
C         18.38998        10.62405        -0.13537
C         18.37749        12.10874         0.14773
C         19.68358         9.87160        -0.11970
C         19.68087        12.83500         0.21701
C         18.41736        15.03265        -0.07689
C         18.41462        16.41918        -0.12457
C         19.69823        14.32141         0.10995
C         19.65062        17.15734         0.33456
C         18.45973        19.32249        -0.07980
C         19.67590        18.63664         0.00424
C         20.98474         2.01139        -0.70373
C         20.97364         3.43628        -0.79805
C         22.22136         1.30361        -0.62627
C         22.30928         4.12991        -0.93949
C         21.04570         6.31615        -1.14523
C         21.02718         7.81046        -0.78859
C         22.16478         5.55683        -0.38616
C         22.14497         8.45384        -0.01506
C         20.95564        10.62327        -0.00701
C         20.94775        12.11471        -0.23538
C         22.17443         9.93835         0.04427
C         22.16079        12.79232         0.41447
C         20.88712        14.98470         0.12426
C         20.92150        16.46703        -0.16558
C         22.23219        14.28968         0.04043
C         22.14455        17.19184         0.33212
C         20.92036        19.28645        -0.04126
C         22.15808        18.59548         0.18843
C         23.46357         1.95061        -0.36129
C         23.47180         3.40096        -0.29290
C         24.61846         1.23297        -0.05896
C         24.63042         4.08243         0.07092
C         23.51226         6.30131        -0.42833
C         23.41987         7.70290         0.13877
C         24.59423         5.56060         0.37420
C         24.68653         8.44365         0.23363
C         23.42457        10.58183         0.23823
C         23.49472        12.08345         0.07664
C         24.65939         9.85694         0.30448
C         24.60372        12.71001         0.90676
C         23.29236        14.96513         0.91103
C         23.28858        16.48214         0.92273
C         24.59014        14.20953         1.15546
C         24.58510        17.23205         1.06415
C         23.40366        19.28799         0.26099
C         24.61425        18.62167         0.53760
C         25.84736         1.90250         0.47983
C         25.86072         3.39471         0.26370
C         27.13037         1.25281         0.05714
C         27.09065         4.10438         0.29472
C         25.91756         6.27934         0.22263
C         25.90641         7.71736         0.20447
C         27.11367         5.56982         0.26221
C         27.13378         8.43420         0.19932
C         25.91444        10.54966         0.43707
C         25.89973        11.95917         0.92736
C         27.11279         9.85088         0.34928
C         27.19830        12.72129         0.95339
C         25.90561        14.95856         1.27611
C         25.91173        16.46340         1.14499
C         27.20885        14.22776         1.04427
C         27.13055        17.12570         0.65718
C         25.85576        19.25592         0.42694
C         27.09516        18.54115         0.47143
C         28.31247         1.96193         0.04892
C         28.30864         3.39056         0.27279
C         29.56281         1.30087        -0.31372
C         29.58143         4.11494         0.39087
C         28.36738         6.28187         0.22453
C         28.37784         7.70930         0.16110
C         29.60371         5.58075         0.24162
C         29.60613         8.40474         0.07933
C         28.42403        10.58216         0.55033
C         28.28877        12.06263         0.12386
C         29.56274         9.88991        -0.20482
C         29.60829        12.79876         0.19101
C         28.37015        14.95524         0.48993
C         28.33324        16.38929         0.39566
C         29.58752        14.22688         0.22409
C         29.51974        17.10978         0.09911
C         28.30572        19.23285         0.25308
C         29.52775        18.53674         0.13525
C         30.75148         1.94271        -0.34981
C         30.88547         3.34492         0.08988
C         32.03338         4.15205        -0.32556
C         30.83250         6.26261         0.10069
C         30.83841         7.71053         0.05875
C         32.02604         5.50955        -0.20349
C         32.04010         8.47548         0.04152
C         30.85931        10.62639         0.01271
C         30.82576        12.08138         0.04730
C         32.03520         9.87811         0.06664
C         32.02396        12.82732        -0.08863
C         30.80073        14.93209        -0.03438
C         30.78579        16.41293        -0.32368
C         31.99314        14.21405        -0.18121
C         32.01043        17.15878         0.13427
C         30.76788        19.24139         0.11641
C         31.97969        18.52951         0.23412
O          9.70483        13.54145        -2.41423
O         27.60624        13.33702         2.18366
O         25.30290        17.11287         2.31385
O          5.23817        10.22491        -2.32628
O         16.62301        10.66561        -1.96110
O          8.83008         3.80838         1.66105
O         11.89454         3.67878         2.09393
O          6.78319         3.45217        -1.40016
O         14.30975         4.79799        -1.54931
O         11.88300        13.70619         0.84439
O         22.82629        15.66276         2.07076
O         11.77803         6.21546         1.76446
O         19.02663        12.38334         1.43532
O         13.07132         8.36038         1.45347
O          5.49172         5.54876        -2.00189
O         18.78073         9.84686         1.04759
O          5.50646        16.53973         1.29054
O          5.04302         8.52410         0.87840
O          7.42162         8.33632         0.84999
O         22.48573         7.83674         1.27242
O         30.44490         3.59682         1.46097
O         25.17849        14.52056         2.44281
O         16.36855         8.14912        -2.16159
O         25.01972        12.00920         2.10257
O         20.64063         8.60563        -1.96965
O         23.95123         6.43327        -1.79018
H         23.73409         5.58652        -2.25972
O         27.79601        12.15000        -1.23474
H         28.31503        11.51223        -1.78388
O         17.54034        17.24216        -2.14854
H         17.29890        16.35544        -2.51313
O         25.78991         1.72807         1.97224
H         26.66955         1.98641         2.32403
O         24.23793         5.67390         1.78090
H         24.83087         5.08606         2.29402
O         20.94818        16.61156        -1.61286
H         21.69246        16.04872        -1.93656
O          4.63672        18.87171        -1.43363
H          4.58558        19.84457        -1.54067
O         22.67684        14.49723        -1.32754
H         22.18217        13.85613        -1.89229
O         16.10404        14.85973        -2.28258
H         15.25010        15.14859        -2.67306
O         21.71930         5.35580         0.96362
H         21.99684         6.13423         1.50862
O         28.78353        10.53744         1.94377
H         28.14086        11.07006         2.46031
O         30.80669        16.49620        -1.81368
H         30.80260        17.45078        -2.04236
O          3.29089        15.17183        -2.09334
H          2.43415        15.63775        -2.20224
O          2.11926         4.74335        -1.68143
H          2.98304         4.35536        -1.93877
O         21.28318         6.24277        -2.57538
H         20.90323         7.07201        -2.95873
O         21.05860        12.32706        -1.68938
H         20.48077        11.67774        -2.14624
O         11.54576        15.26552        -2.50591
H         11.04432        14.61680        -3.05801
O         22.67508         4.11392        -2.35567
H         21.96376         4.59305        -2.84866
O          6.08479         7.94215        -2.57430
H          5.62846         7.16324        -2.97231
O         14.60307        18.96022        -2.07330
H         13.78707        18.51791        -2.39180
O         19.68757        17.05626         1.78257
H         18.88530        17.48404         2.14710
O          8.66803         1.69214        -1.43591
H          7.83874         2.08433        -1.80802
O         21.98321        12.76277         1.83190
H         21.78573        11.84703         2.11988
O         23.87129        12.30243        -1.30786
H         23.17655        11.89628        -1.87205
O         29.26819         9.98820        -1.64635
H         30.01650         9.57691        -2.12893
H          0.76764         2.41265         2.82048
H          0.48221         4.40247         1.36911
H          2.88311         1.11634         2.80705
H          0.12727         5.80596        -0.14837
H          0.14883         8.21177        -0.15284
H          0.21833        10.08969         0.20146
H          0.21617        12.49363         0.28223
H          0.18591        14.38180         0.36058
H          0.22530        16.79831         0.68991
H          1.56069        18.83289         1.27383
H          5.14705         0.79185         1.97441
H          3.60783        20.18168         1.06203
H          7.47162         0.47418         1.18807
H          6.16205        20.23709         0.68974
H         10.01432         0.23359         0.32730
H          8.58736        20.21193         0.68259
H         12.35726         0.22173         0.46449
H         11.02219        20.25578         0.53083
H         14.89376         0.17957         0.10165
H         13.48185        20.33910         0.22742
H         17.35493         0.20754        -0.24438
H         15.99033        20.36534         0.10777
H         19.75867         0.21994        -0.53538
H         18.46317        20.42419        -0.09878
H         22.19073         0.20266        -0.61810
H         20.95110        20.37544        -0.19894
H         24.59720         0.13277        -0.07846
H         23.43037        20.36140         0.02243
H         27.14001         0.16973        -0.13812
H         25.88649        20.32115         0.15375
H         29.50067         0.24539        -0.61835
H         28.29860        20.33120         0.19696
H         31.65220         1.42424        -0.71170
H         32.91028         3.63974        -0.74868
H         32.93371         6.06338        -0.48209
H         33.01071         7.96368         0.08595
H         33.00544        10.38646         0.16223
H         32.98535        12.31055        -0.20866
H         32.93016        14.74626        -0.39377
H         32.96511        16.62763         0.24960
H         30.76279        20.33868         0.16879
H         32.90832        19.08452         0.43278
