         234
 CSIRO Nanostructure Databank - Neutral Graphene Oxide Data Set
C          1.58312         2.02715        -1.59294
C          1.46731         3.38836        -1.29621
C          2.83430         1.43404        -1.71938
C          2.61527         4.19248        -1.14240
C          1.35042         6.33735        -1.00107
C          1.28607         7.75298        -0.82351
C          2.52402         5.62412        -0.84473
C          2.34666         8.47669        -0.33101
C          1.13358        10.65338        -0.16070
C          1.10068        12.06296         0.02271
C          2.31054         9.92115        -0.19592
C          2.24133        12.83964         0.16586
C          1.07476        15.03884         0.28125
C          1.10057        16.47539         0.36676
C          2.21615        14.27359         0.37568
C          2.27686        17.16986         0.23559
C          2.40390        18.61087         0.34340
C          4.01015         2.20642        -1.55834
C          3.88841         3.59543        -1.28359
C          5.29481         1.56779        -1.53742
C          5.10388         4.43091        -1.21555
C          3.72869         6.33521        -0.43304
C          3.52653         7.69719         0.22853
C          4.97218         5.78042        -0.60813
C          4.84701         8.46573         0.20650
C          3.58401        10.67618        -0.19917
C          3.54977        12.17251        -0.02138
C          4.87349         9.95373         0.06135
C          4.80785        12.87953         0.33823
C          3.49896        15.00101         0.75165
C          3.52280        16.37320         0.08280
C          4.77842        14.23464         0.49163
C          4.80030        17.09505        -0.17629
C          3.57158        19.26810         0.13992
C          4.78583        18.60067        -0.47796
C          6.47198         2.25257        -1.25384
C          6.45763         3.73822        -1.24780
C          7.64540         1.53526        -0.88466
C          7.69298         4.44673        -0.75335
C          6.22122         6.51034        -0.23380
C          6.03047         7.65464         0.74115
C          7.56992         5.85551        -0.24031
C          7.28675         8.48981         0.98656
C          6.05198        10.74030         0.50158
C          6.05252        12.11993         0.49402
C          7.24331         9.99440         0.97284
C          7.30991        12.86471         0.59031
C          6.04112        14.99213         0.60280
C          6.06491        16.46567         0.32041
C          7.29487        14.23959         0.44147
C          7.34388        17.13561        -0.02424
C          6.10565        19.27075        -0.17638
C          7.31023        18.59527        -0.16245
C          8.78186         2.14069        -0.33086
C          8.86099         3.63205        -0.29780
C          9.86427         1.38116         0.16134
C          9.80848         4.24839         0.66254
C          8.67737         6.44332         0.57591
C          8.61553         7.80930         0.94535
C          9.84409         5.69299         0.87679
C          9.81302         8.51285         1.22501
C          8.53933        10.74495         1.15654
C          8.58024        12.17110         0.74098
C          9.81736         9.98902         1.41583
C          9.78636        12.82945         0.67839
C          8.50517        14.95955         0.04050
C          8.50977        16.43436        -0.09016
C          9.81585        14.21943         0.17998
C          9.76000        17.09338        -0.64091
C          8.57333        19.27403        -0.20605
C          9.78255        18.58513        -0.37438
C         10.91344         2.01190         0.88526
C         10.64324         3.37201         1.30851
C         12.17403         1.42918         1.11360
C         12.42504         4.38096         1.77550
C         11.04811         6.39815         1.21199
C         11.05419         7.82631         1.18229
C         12.32708         5.72240         1.36978
C         12.30172         8.55816         0.98103
C         11.16475        10.74456         1.45147
C         11.09331        12.05680         0.62355
C         12.36332         9.94544         0.96169
C         12.35379        12.88603         0.88047
C         11.04360        15.05524         0.33750
C         11.05318        16.42245        -0.21489
C         12.35062        14.36159         0.61565
C         12.25006        17.08489        -0.32107
C         11.01427        19.24477        -0.43403
C         12.25496        18.53409        -0.57101
C         13.41929         2.12176         1.33162
C         13.53455         3.56560         1.47677
C         14.60606         1.41248         1.08941
C         14.75878         4.24487         1.22500
C         13.54890         6.36938         1.04591
C         13.50708         7.78376         0.63598
C         14.75887         5.66698         1.09496
C         14.82871         8.51693         0.42138
C         13.59524        10.64849         0.69440
C         13.64319        12.13489         0.78594
C         14.80478         9.98381         0.50019
C         14.86201        12.84846         0.33456
C         13.59502        15.01542         0.17139
C         13.52579        16.38246        -0.19585
C         14.80765        14.27290         0.06623
C         14.71653        17.05001        -0.56476
C         13.42983        19.19727        -0.82738
C         14.70951        18.46912        -1.10617
C         15.86226         2.05982         0.92097
C         15.95436         3.48355         1.01379
C         17.01686         1.32701         0.54566
C         17.20868         4.12748         0.83014
C         16.04925         6.39785         1.09256
C         16.10524         7.82553         0.69998
C         17.33176         5.58730         1.05524
C         17.29503         8.52483         0.63436
C         16.06262        10.68010         0.37155
C         16.04717        12.13047         0.20135
C         17.26663         9.95509         0.38736
C         17.27161        12.81632        -0.16780
C         15.99543        14.95625        -0.33006
C         15.92886        16.35205        -0.58294
C         17.25470        14.24623        -0.42983
C         17.15095        17.11205        -0.93383
C         15.93139        19.21884        -0.63301
C         17.14381        18.57298        -0.62145
C         18.22122         1.97636         0.26473
C         18.32312         3.38981         0.43563
C         19.36255         1.24232        -0.24993
C         19.67380         4.05711         0.35185
C         18.55772         6.29435         0.61001
C         18.60926         7.79558         0.94850
C         19.61214         5.56405         0.12121
C         19.86403         8.45969         0.35930
C         18.52672        10.71234         0.23376
C         18.45108        12.09561        -0.28034
C         19.85930         9.95179         0.16750
C         19.67793        12.77835        -0.72337
C         18.45687        14.93396        -0.66182
C         18.44943        16.37881        -0.98622
C         19.72080        14.25133        -0.65107
C         19.71632        17.16822        -0.82233
C         18.37044        19.20819        -0.26210
C         19.61307        18.55211        -0.29827
C         20.47469         1.89173        -0.69292
C         20.61784         3.32098        -0.56895
C         21.64601         3.99868        -1.16979
C         20.79363         6.18645        -0.45193
C         20.93730         7.66061        -0.33943
C         21.76316         5.41997        -1.05481
C         21.86067         8.37614        -1.23050
C         20.98718        10.55161        -0.54252
C         20.99683        12.01789        -0.77795
C         21.90297         9.75524        -1.25221
C         22.21271        12.80051        -0.57483
C         20.95264        14.91208        -0.65077
C         21.01115        16.40565        -0.62564
C         22.17487        14.16682        -0.57105
C         22.08411        17.10627         0.09103
C         20.78701        19.17905         0.15784
C         21.98094        18.44910         0.36932
O          3.68974        11.56708        -1.36269
O          4.14414        16.33482        -1.25191
O          8.84734         4.25592        -1.63266
O         16.80180         6.07248         2.32339
O         17.72294        16.72483        -2.23002
O         11.33578         3.81056         2.44721
O         20.23330        12.29404        -2.01127
O          9.01322        10.50839         2.52957
O         13.11765        12.61759         2.08431
O          5.18906         9.04693        -1.07588
O         11.60799        15.04225         1.69382
O         14.05141         7.98745        -0.71665
O         20.66048        17.02015        -1.92437
O          9.19374        14.34005        -1.14510
O          5.90802         4.35529        -2.44939
O          6.03045        15.99798         1.71815
O          7.15094         6.79967        -1.30443
O         21.06423         8.06766         1.10006
O         19.44933        10.65192         1.39357
O          6.99504         9.23318         2.22259
O          3.14984         7.46640         1.61294
H          3.90991         7.00550         2.04769
O          5.71666         7.03581         2.01547
H          5.95912         7.69127         2.71264
O         14.81265        18.35876        -2.56696
H         15.66631        17.91865        -2.77478
O          3.44244        15.19585         2.19086
H          4.31489        15.56964         2.46594
O         20.26679         3.92412         1.69087
H         19.69035         4.41170         2.31811
O         11.16913        11.62592        -0.77146
H         10.74979        12.30189        -1.34635
O         11.43125        11.01967         2.83046
H         10.56585        11.14819         3.28361
O          4.62019        18.76988        -1.91637
H          4.18596        17.94515        -2.24314
O          9.67217        16.94194        -2.09195
H          9.53360        15.98210        -2.26858
O         18.76064         7.86913         2.38361
H         19.72304         7.79464         2.57376
H          0.67514         1.42046        -1.71539
H          0.46699         3.82796        -1.18424
H          2.92065         0.35956        -1.93435
H          0.44662         5.83065        -1.36674
H          0.37164         8.26884        -1.15070
H          0.16999        10.12581        -0.20124
H          0.11192        12.53533         0.11015
H          0.09993        14.55817         0.11316
H          0.14825        17.01605         0.46932
H          1.50928        19.17388         0.65269
H          5.32500         0.46973        -1.60946
H          3.60103        20.36276         0.24915
H          7.60433         0.43561        -0.92105
H          6.12153        20.36976        -0.24621
H          9.90497         0.30033        -0.04049
H          8.58474        20.37262        -0.13864
H         12.27794         0.36994         0.82412
H         11.04136        20.34453        -0.39032
H         14.55550         0.32503         0.92668
H         13.41583        20.28808        -0.97563
H         16.94914         0.23444         0.43615
H         15.86610        20.29200        -0.39838
H         19.27568         0.15107        -0.35371
H         18.33694        20.25879         0.06410
H         21.28704         1.32975        -1.17806
H         22.39129         3.45325        -1.76704
H         22.64910         5.89596        -1.49625
H         22.53680         7.80821        -1.88207
H         22.65018        10.25888        -1.88224
H         23.15194        12.27059        -0.36086
H         23.11710        14.72021        -0.45358
H         22.97555        16.55146         0.41513
H         20.74106        20.23128         0.47326
H         22.82699        18.96222         0.84878
