         424
 CSIRO Nanostructure Databank - Neutral Graphene Oxide Data Set
C          1.22766         3.40872         0.25093
C          0.02323         4.08638         0.14021
C          1.18349         6.24145         0.08493
C         -0.00445         5.48450         0.05088
C          1.18326         7.68808        -0.03667
C         -0.01384         8.40883        -0.28394
C          1.19274        10.52934        -0.34414
C         -0.00934         9.77707        -0.44904
C          1.22753        11.94673        -0.56704
C          0.04703        12.68751        -0.92679
C          1.22094        14.83853        -0.80972
C          0.03640        14.05745        -1.00157
C          1.21244        16.22915        -0.80063
C          0.03453        17.00171        -1.16449
C          1.07612        19.07419        -0.29379
C         -0.01709        18.34249        -1.02692
C          1.11323        20.57384        -0.51298
C         -0.13490        21.29437        -0.52199
C          0.99974        23.47024        -0.40889
C         -0.21045        22.65445        -0.54801
C          0.97941        24.94433        -0.71721
C         -0.17161        25.74757        -0.29546
C          1.13043        27.83143        -0.43672
C         -0.10902        27.10638        -0.28289
C          1.15888        29.26917        -0.33048
C         -0.02733        30.04441        -0.44594
C          1.22662        32.11369        -0.14202
C          0.01033        31.41944        -0.39047
C          1.28626        33.55334        -0.10410
C          0.17844        34.35723        -0.51832
C          1.43808        36.39838        -0.09223
C          0.25826        35.72581        -0.53644
C          1.51467        37.81346        -0.09639
C          3.68732         3.44936         0.37861
C          2.45208         4.12835         0.29044
C          3.65560         6.29273         0.29409
C          2.42920         5.56135         0.22444
C          3.64581         7.72367         0.26379
C          2.40134         8.41138         0.07358
C          3.61012        10.57159         0.17491
C          2.40354         9.83710        -0.04280
C          3.58996        11.98449         0.07892
C          2.43654        12.65206        -0.35851
C          3.69845        14.84240        -0.24810
C          2.53319        14.08433        -0.82880
C          3.66452        16.29032        -0.34418
C          2.44064        16.97211        -0.55304
C          3.61045        19.12404        -0.48839
C          2.40849        18.38771        -0.49540
C          3.59361        20.56089        -0.59562
C          2.31707        21.25467        -0.59651
C          3.53671        23.47898        -0.94096
C          2.31774        22.73279        -0.50192
C          3.58887        24.93570        -0.73328
C          2.32251        25.68261        -0.80858
C          3.59879        27.78113        -0.35454
C          2.34249        27.12501        -0.53094
C          3.62133        29.18637        -0.10140
C          2.39770        29.93527        -0.12982
C          3.63409        32.01878         0.41062
C          2.41738        31.35795         0.03966
C          3.61916        33.40483         0.67638
C          2.47707        34.19009         0.33032
C          3.68992        36.30938         0.86628
C          2.54313        35.63108         0.37642
C          3.73055        37.70517         0.88360
C          2.64402        38.45416         0.37777
C          6.14430         3.47023         0.43747
C          4.90597         4.15442         0.40427
C          6.11720         6.31696         0.43016
C          4.89056         5.59519         0.38341
C          6.10690         7.74643         0.45146
C          4.86308         8.45380         0.38386
C          6.07358        10.61669         0.56875
C          4.85579         9.88560         0.40902
C          6.07830        12.04435         0.59514
C          4.74626        12.75582         0.66008
C          5.98868        14.98142         0.74886
C          4.79537        14.20404         0.25076
C          6.07818        16.36465         0.16396
C          4.86891        17.02608        -0.17453
C          6.09009        19.14572        -0.42157
C          4.86417        18.43913        -0.38907
C          6.06428        20.57122        -0.57679
C          4.80941        21.25536        -0.65010
C          6.07805        23.45576        -0.71759
C          4.83695        22.70315        -0.93591
C          6.05637        24.85658        -0.62757
C          4.80535        25.60194        -0.61828
C          6.06064        27.70273        -0.20834
C          4.82466        27.03900        -0.41320
C          6.08556        29.12246         0.08505
C          4.86073        29.85454         0.13080
C          6.09261        31.92204         0.62155
C          4.86830        31.26069         0.43179
C          6.12234        33.30825         1.11930
C          4.80940        34.05464         1.26006
C          6.16221        36.22801         1.24336
C          4.82416        35.56046         1.53281
C          6.19160        37.64182         1.28064
C          4.90709        38.40407         1.52317
C          8.59870         3.48076         0.41100
C          7.36698         4.16805         0.43312
C          8.57852         6.32485         0.47432
C          7.35632         5.61360         0.44534
C          8.57162         7.75604         0.54538
C          7.33341         8.46278         0.52541
C          8.54111        10.58931         0.76302
C          7.32893         9.89588         0.62268
C          8.52138        12.04155         1.14942
C          7.26665        12.78652         0.75287
C          8.49947        14.94291         0.67967
C          7.29110        14.20659         0.68419
C          8.52905        16.33195         0.37915
C          7.30541        17.04312         0.11974
C          8.55665        19.13271        -0.35482
C          7.33416        18.44503        -0.23581
C          8.53387        20.52392        -0.94594
C          7.27784        21.29534        -0.65510
C          8.54462        23.41559        -0.57598
C          7.30248        22.71254        -0.63828
C          8.54802        24.82765        -0.47546
C          7.29267        25.56886        -0.46150
C          8.55929        27.59061         0.18336
C          7.27359        26.95667        -0.27327
C          8.57191        29.10336         0.17396
C          7.31747        29.80718         0.28858
C          8.54806        31.92751         0.69936
C          7.32694        31.22170         0.50789
C          8.58657        33.34574         0.85771
C          7.38507        34.06543         1.03056
C          8.60338        36.20270         0.87786
C          7.37501        35.49863         1.06623
C          8.62046        37.64791         0.91650
C          7.38797        38.33486         1.14125
C         11.03707         3.43583         0.33906
C          9.83698         4.16397         0.35516
C         11.02494         6.34108         0.51127
C          9.82723         5.62190         0.41274
C         11.04203         7.77141         0.66599
C          9.79853         8.47400         0.63566
C         11.02609        10.61826         0.77209
C          9.78940         9.90078         0.73046
C         10.99889        12.06760         0.82303
C          9.81378        12.75735         0.85347
C         10.99077        14.92806         0.46609
C          9.79132        14.25123         1.08514
C         10.98658        16.39972         0.38578
C          9.78606        17.06509         0.27634
C         11.02826        19.16221        -0.23723
C          9.79515        18.48838        -0.07891
C         11.06839        20.51981        -0.91624
C          9.79912        21.29874        -0.71787
C         11.03751        23.42950        -0.71125
C          9.79720        22.68662        -0.63371
C         11.00608        24.83602        -0.71216
C          9.79184        25.50850        -0.49080
C         11.08066        27.66218        -0.05015
C          9.77539        27.00863        -0.55637
C         11.03927        29.17394        -0.31128
C          9.77213        29.76951         0.26726
C         11.11946        31.90407         0.74704
C          9.79573        31.16674         0.71162
C         11.07515        33.37206         0.66810
C          9.84891        34.05631         0.77871
C         11.05744        36.19217         0.55328
C          9.83768        35.49010         0.72416
C         11.04237        37.66734         0.24570
C          9.80917        38.35286         0.74076
C         13.60113         3.41983         0.35998
C         12.32023         4.07035         0.14332
C         13.54407         6.26497         0.75609
C         12.29428         5.64905         0.27512
C         13.53499         7.78718         0.93425
C         12.25898         8.50264         0.73975
C         13.53704        10.63518         0.69067
C         12.26454         9.92037         0.75031
C         13.55795        12.04482         0.67408
C         12.30572        12.80585         1.05087
C         13.55335        14.90218         0.26366
C         12.27294        14.18191         0.42139
C         13.47183        16.35050        -0.16011
C         12.30710        17.10534         0.55195
C         13.48168        19.22590        -0.06270
C         12.27196        18.53983         0.06570
C         13.52401        20.62636        -0.39358
C         12.31355        21.31595        -0.62924
C         13.52906        23.44173        -0.78677
C         12.29826        22.72119        -0.74360
C         13.52868        24.87762        -0.94564
C         12.22750        25.61885        -1.15266
C         13.48126        27.74496        -0.69272
C         12.32118        27.03418        -0.62891
C         13.54042        29.14599        -0.25607
C         12.35051        29.83164         0.06093
C         13.56623        31.94266         0.29161
C         12.36147        31.21017         0.34241
C         13.54868        33.37420         0.44506
C         12.30363        34.07419         0.54984
C         13.53766        36.21368         0.58548
C         12.28796        35.50210         0.52950
C         13.51280        37.67686         0.68387
C         12.32665        38.35741         0.60214
C         16.07381         3.46559         0.19939
C         14.81107         4.15060         0.36753
C         16.02967         6.31199         0.79239
C         14.80168         5.55752         0.54352
C         16.01964         7.79068         0.65359
C         14.80880         8.49750         0.71266
C         16.00325        10.62506         0.41579
C         14.77306         9.91844         0.57365
C         15.99719        12.05416         0.32063
C         14.75469        12.75822         0.42654
C         15.95941        14.89089        -0.33421
C         14.72321        14.20601         0.22114
C         15.95404        16.39547        -0.10734
C         14.79127        17.07110         0.02530
C         16.01278        19.28168         0.00615
C         14.75235        18.55198         0.38342
C         16.01787        20.62764        -0.30323
C         14.76047        21.33609        -0.44019
C         16.00998        23.41786        -0.88965
C         14.76414        22.73307        -0.69044
C         15.96429        24.84441        -1.22811
C         14.70097        25.58089        -1.04674
C         15.99084        27.67905        -0.59032
C         14.72507        27.08771        -1.26436
C         16.01554        29.18975        -0.50988
C         14.78256        29.85488        -0.21535
C         16.02117        31.99119         0.03393
C         14.79022        31.26007         0.03508
C         16.01744        33.40142         0.28635
C         14.76826        34.09135         0.45781
C         16.01510        36.21434         1.01333
C         14.73986        35.51661         0.61576
C         15.98284        37.70659         0.77743
C         14.77110        38.37488         0.77691
C         18.50896         3.50693        -0.23017
C         17.27308         4.13958         0.16232
C         18.52485         6.34982         0.18987
C         17.33844         5.56372         0.55112
C         18.49129         7.76949         0.26209
C         17.25139         8.48383         0.45385
C         18.47203        10.62760         0.23384
C         17.23778         9.90826         0.35394
C         18.45762        12.06764         0.19388
C         17.23406        12.75423         0.19124
C         18.50647        14.89644        -0.30131
C         17.22525        14.26933         0.27414
C         18.52199        16.38953        -0.08605
C         17.24771        17.13686        -0.40810
C         18.53727        19.25835        -0.11734
C         17.28184        18.51914         0.25313
C         18.50710        20.65946        -0.38666
C         17.26861        21.34859        -0.48660
C         18.50400        23.47051        -0.94039
C         17.24477        22.74595        -0.78586
C         18.52035        24.84973        -1.14848
C         17.27685        25.59934        -1.32681
C         18.46934        27.74791        -1.02137
C         17.28582        27.06375        -1.08026
C         18.47002        29.26355        -1.07506
C         17.20853        29.90613        -0.54266
C         18.48257        32.02996        -0.20512
C         17.23578        31.30628        -0.24484
C         18.48232        33.44036         0.02334
C         17.24721        34.13147         0.26903
C         18.45625        36.27041         0.43885
C         17.26414        35.53294         0.51247
C         18.43571        37.71355         0.58137
C         17.21667        38.39822         0.70283
C         19.65952         4.22646        -0.37327
C         20.87771         6.40318        -0.43239
C         19.68992         5.66278        -0.20419
C         20.88897         7.77307        -0.26633
C         19.70616         8.49000         0.06314
C         20.92558        10.66150         0.23060
C         19.70182         9.92520         0.17053
C         20.93268        12.02784         0.31519
C         19.72271        12.78806         0.23741
C         20.92699        14.96650         0.40353
C         19.74995        14.19337         0.19020
C         20.92049        16.33841         0.32427
C         19.70620        17.07661         0.06610
C         20.95683        19.24477        -0.30553
C         19.73457        18.54296        -0.08606
C         20.96394        20.60164        -0.51501
C         19.75195        21.36044        -0.56809
C         20.97956        23.51597        -0.83450
C         19.74958        22.75724        -0.79707
C         21.01507        24.84410        -1.08827
C         19.78488        25.59712        -1.50403
C         20.89585        27.75627        -0.80477
C         19.75097        27.05888        -1.09152
C         20.88159        29.15109        -0.47955
C         19.73601        29.90117        -0.55083
C         20.92464        32.06875        -0.25896
C         19.72226        31.33746        -0.33134
C         20.92092        33.44606        -0.09945
C         19.71418        34.16291         0.03929
C         20.88131        36.37000         0.13585
C         19.70850        35.60661         0.19645
C         20.85409        37.76913         0.29327
C         19.66147        38.43364         0.50527
O         11.43656        14.29185        -0.80222
O          4.11961        23.03021        -2.19875
O         12.38887         5.02194        -1.00330
O          1.80156        23.19500         0.79736
O         13.47851         6.88393         2.08960
O         16.54950        25.20179        -2.56920
O         10.56129        31.34626         1.99146
O         16.85155         5.82233         1.91193
O          5.38622        33.36631         2.42100
O          1.52897        25.30618        -2.01270
O          0.76254        18.91661         1.13844
H          1.43880        19.41571         1.64414
O         19.79485        25.64348        -2.98224
H         19.53177        24.75611        -3.30762
O         10.95569        37.75948        -1.24433
H         10.11019        37.33512        -1.50575
O          8.47020        20.28233        -2.43177
H          8.26956        21.14667        -2.85328
O          4.59533        35.72427         2.97148
H          5.03581        34.95236         3.40315
O         17.16046        14.60089         1.68300
H         17.91161        14.16527         2.13748
O         15.92396        14.67139        -1.76464
H         15.09475        15.08862        -2.09309
O         14.73078        18.59483         1.86895
H         15.62063        18.25767         2.15667
O         11.18220        27.47337         1.39027
H         11.97709        27.95930         1.69879
O          9.61896        27.29119        -1.97879
H         10.31637        26.76868        -2.45282
O         18.49401        14.69656        -1.75177
H         19.35531        15.01247        -2.09736
O          5.76691        15.19857         2.19194
H          5.35647        14.36735         2.53903
O          8.60224        27.21822         1.58789
H          9.48823        27.46843         1.94545
O          4.44609        12.79835         2.12135
H          4.54980        11.88479         2.46600
O         12.05220        25.78775        -2.61070
H         12.84675        26.27859        -2.93520
O         16.08067        36.06421         2.48333
H         15.30337        36.53301         2.85604
O         12.54497        17.05207         1.98098
H         13.31962        17.64143         2.18582
O          4.67860        38.50631         2.94009
H          4.58565        37.58084         3.27689
O          8.46405        12.04672         2.64969
H          9.15978        11.42742         2.96268
O         13.20839        16.32970        -1.59273
H         12.44724        15.71121        -1.72571
O         17.37331        18.25368         1.70349
H         17.70274        19.07132         2.13343
O         15.87479        27.21440         0.79872
H         16.58939        27.63620         1.32137
O         12.38998        13.01325         2.49365
H         11.62378        13.58783         2.75341
O         14.73892        27.30990        -2.69148
H         15.45200        26.72794        -3.05763
O          2.85666        13.97211        -2.26754
H          2.10200        13.51576        -2.69764
O         18.46144        29.56975        -2.51465
H         19.20405        29.07440        -2.92197
O          9.92298        14.42478         2.53444
H          9.21355        13.86931         2.94312
O         17.24248        17.31104        -1.84983
H         17.19501        16.40237        -2.23517
O         10.96001        29.47552        -1.73226
H         10.25051        28.90075        -2.12091
O         11.16348        20.21703        -2.35955
H         10.24921        19.97039        -2.65539
H          1.24739         2.31110         0.30837
H         -0.92173         3.52582         0.11379
H         -0.97831         5.98278        -0.04318
H         -0.96853         7.87353        -0.37119
H         -0.95993        10.28430        -0.65952
H         -0.89844        12.15061        -1.07998
H         -0.92313        14.56562        -1.17236
H         -0.81135        16.47987        -1.63559
H         -0.90652        18.89082        -1.36902
H         -1.06850        20.71556        -0.55981
H         -1.17965        23.15314        -0.69288
H         -1.08850        25.23388         0.02793
H         -1.01006        27.66874        -0.00107
H         -0.98942        29.54676        -0.62699
H         -0.92598        31.97912        -0.51538
H         -0.74415        33.87377        -0.86599
H         -0.59392        36.32537        -0.88788
H          0.65841        38.39534        -0.46692
H          3.69787         2.34972         0.40997
H          2.69503        39.55249         0.39133
H          6.14994         2.37009         0.44320
H          5.00020        39.44725         1.12698
H          8.59594         2.38098         0.39556
H          7.39127        39.43411         1.18135
H         11.01059         2.35682         0.54971
H          9.79102        39.45309         0.75893
H         13.62919         2.32757         0.48172
H         12.32529        39.45724         0.65074
H         16.05167         2.38894        -0.02668
H         14.75980        39.47538         0.74037
H         18.50413         2.42375        -0.42156
H         17.21246        39.49867         0.67175
H         20.59091         3.72224        -0.66961
H         21.79458         5.87420        -0.72921
H         21.82638         8.31759        -0.44097
H         21.88354        10.12535         0.24814
H         21.89666        12.54979         0.37826
H         21.86429        14.46262         0.67849
H         21.85311        16.88508         0.51747
H         21.90994        18.69880        -0.31217
H         21.92791        21.10130        -0.67717
H         21.92394        23.00250        -0.60608
H         21.98792        25.35486        -1.10305
H         21.87132        27.25242        -0.79920
H         21.83379        29.60834        -0.17649
H         21.88887        31.55359        -0.36356
H         21.88402        33.97254        -0.07586
H         21.85155        35.88762        -0.04236
H         21.79565        38.33317         0.23709
H         19.64514        39.52752         0.61456
