         429
 CSIRO Nanostructure Databank - Neutral Graphene Oxide Data Set
C          1.32206         2.38658        -1.51870
C          1.23006         3.63170        -0.88791
C          2.55467         1.77667        -1.68815
C          2.37865         4.28719        -0.38881
C          1.10242         6.34158         0.20342
C          1.08926         7.72222         0.37118
C          2.29134         5.59578         0.21854
C          2.26547         8.47544         0.62149
C          1.18788        10.56510        -0.13835
C          1.11081        11.93037        -0.16144
C          2.31484         9.87187         0.40346
C          2.27224        12.73879         0.21156
C          1.10751        14.89662        -0.72225
C          1.20498        16.14388        -1.23997
C          2.26840        14.24836        -0.08540
C          2.45176        16.87803        -1.20825
C          2.49616        18.23521        -1.68057
C          3.73813         2.39877        -1.20057
C          3.65275         3.65995        -0.52410
C          4.99045         1.77743        -1.39703
C          4.85419         4.28154        -0.00889
C          3.48213         6.19196         0.83422
C          3.44171         7.74433         1.12979
C          4.78137         5.52686         0.67420
C          4.73932         8.49829         1.30233
C          3.41337        10.71415         1.03768
C          3.55921        12.05172         0.35231
C          4.75761         9.99168         1.19354
C          4.73887        12.87232         0.80641
C          3.59822        14.89932        -0.22402
C          3.61047        16.26852        -0.72330
C          4.74826        14.25650         0.16952
C          4.86487        16.98322        -0.78772
C          3.66072        18.95363        -1.69119
C          4.90054        18.36063        -1.27128
C          6.17494         2.36540        -0.90158
C          6.09362         3.59546        -0.17938
C          7.42955         1.72273        -1.08252
C          7.33563         4.12564         0.39461
C          6.00055         6.21723         1.13091
C          6.02986         7.72486         1.28823
C          7.31743         5.52520         0.97738
C          7.28589         8.46234         1.00462
C          6.04170        10.66345         0.81201
C          6.04885        12.09438         0.62339
C          7.21717         9.88232         0.75181
C          7.23882        12.79364         0.40522
C          6.01212        15.05229         0.35139
C          6.02890        16.34350        -0.42557
C          7.28631        14.23393         0.23614
C          7.30234        16.99844        -0.75403
C          6.08594        19.09013        -1.25407
C          7.33703        18.46500        -0.95685
C          8.64891         2.30051        -0.64757
C          8.63118         3.56946         0.00368
C          9.88611         1.62975        -0.79242
C          9.82491         4.21406         0.42065
C          8.56473         6.30675         0.93895
C          8.50676         7.75625         0.91701
C          9.76884         5.60192         0.87205
C          9.76359         8.48620         0.81209
C          8.48204        10.53553         0.36113
C          8.49481        12.04697         0.18274
C          9.75917         9.85800         0.64122
C          9.79069        12.73808         0.29213
C          8.48492        14.89411         0.09567
C          8.57169        16.26873        -0.45581
C          9.75908        14.20160         0.33147
C          9.82031        17.05163        -0.38463
C          8.55477        19.12395        -0.95373
C          9.80491        18.45292        -0.68242
C         11.07332         2.21340        -0.32098
C         11.05664         3.52925         0.23104
C         12.31315         1.48192        -0.42851
C         12.35734         4.05648         0.80551
C         11.02640         6.34221         1.11814
C         11.02974         7.79136         0.94002
C         12.37299         5.57366         0.99057
C         12.25468         8.48508         0.89049
C         10.99221        10.66218         0.98705
C         11.00986        12.06929         0.43917
C         12.28794         9.91952         0.79843
C         12.25027        12.74575         0.31287
C         11.04079        14.94995         0.19676
C         11.03081        16.38983        -0.16646
C         12.25190        14.15582        -0.22728
C         12.26334        17.07045        -0.24692
C         11.02504        19.15044        -0.67786
C         12.26358        18.48780        -0.46037
C         13.53984         2.10380        -0.27167
C         13.56561         3.52928         0.05935
C         14.78103         1.42770        -0.48682
C         14.68188         4.26031        -0.17209
C         13.51809         6.36914         0.59497
C         13.50003         7.75968         0.75734
C         14.70959         5.76146        -0.10684
C         14.73635         8.49557         0.72586
C         13.48982        10.61762         0.69155
C         13.49645        12.07520         0.50252
C         14.74195         9.89309         0.69994
C         14.70815        12.79422         0.44116
C         13.51347        14.93392         0.02827
C         13.50539        16.34465        -0.10659
C         14.72302        14.22337         0.20213
C         14.73001        17.06615        -0.12079
C         13.49814        19.18428        -0.43613
C         14.72629        18.50362        -0.25821
C         15.96856         2.14096        -0.63154
C         15.89516         3.64030        -0.83461
C         17.22250         1.49167        -0.68236
C         17.20197         4.35364        -0.51554
C         16.00079         6.21633         0.61249
C         16.00553         7.73228         0.82386
C         17.23181         5.63997        -0.09077
C         17.27096         8.51744         0.71589
C         15.99803        10.63179         0.70660
C         15.98795        12.13283         0.89979
C         17.20108         9.98893         0.66761
C         17.24480        12.78163         0.35712
C         15.94243        14.94203         0.06914
C         15.96237        16.35337        -0.07787
C         17.18308        14.17349        -0.10642
C         17.20529        17.08389        -0.14564
C         15.95694        19.20031        -0.23622
C         17.19908        18.51933        -0.16580
C         18.44240         2.18606        -0.78684
C         18.42320         3.67979        -1.10794
C         19.65803         1.49223        -0.70600
C         19.72585         4.35965        -0.73340
C         18.44999         6.46637        -0.33354
C         18.47430         7.90095         0.08521
C         19.75467         5.78999        -0.53606
C         19.76064         8.61538         0.22234
C         18.49397        10.72050         0.94839
C         18.45308        12.13748         0.43168
C         19.74667         9.98343         0.52066
C         19.70972        12.84042         0.29190
C         18.48210        14.93439        -0.29413
C         18.45324        16.41044        -0.18465
C         19.73359        14.23094         0.03592
C         19.65585        17.11857        -0.17349
C         18.43338        19.22350        -0.14924
C         19.66917        18.54823        -0.14331
C         20.91058         2.16469        -0.66392
C         20.88656         3.61823        -0.64034
C         22.13453         1.46846        -0.61806
C         22.17987         4.31478        -0.65871
C         20.93952         6.52114        -0.45172
C         20.97228         7.93294        -0.08641
C         22.21950         5.81584        -0.67590
C         22.19062         8.64794         0.03589
C         20.95596        10.71096         0.49636
C         20.94297        12.15339         0.49471
C         22.19063        10.02549         0.34715
C         22.15941        12.86593         0.54156
C         20.93353        14.95092         0.08192
C         20.94783        16.38129        -0.39485
C         22.14935        14.28710         0.38574
C         22.16790        17.14196         0.03742
C         20.92776        19.24590        -0.13795
C         22.16033        18.58074        -0.04539
C         23.38794         2.11100        -0.38895
C         23.35523         3.57012        -0.12982
C         24.61216         1.45589        -0.31618
C         24.62137         4.30689         0.17522
C         23.52858         6.51445        -0.42392
C         23.50562         8.00636        -0.16399
C         24.71491         5.77623         0.01332
C         24.71305         8.63961         0.38017
C         23.42986        10.74695         0.52430
C         23.41260        12.15403         0.67538
C         24.67099        10.05213         0.62134
C         24.62572        12.85301         0.91959
C         23.36037        15.03096         0.50079
C         23.34478        16.43849         0.30279
C         24.57200        14.33188         0.96762
C         24.62367        17.16075         0.15078
C         23.41211        19.29646        -0.01392
C         24.63634        18.63718         0.04739
C         25.84665         2.15460        -0.05362
C         25.85890         3.53090         0.18065
C         27.10408         1.44102        -0.05575
C         27.11009         4.21263         0.65240
C         25.89940         6.45352         0.31072
C         25.91571         7.90178         0.46729
C         27.12583         5.72591         0.52333
C         27.11755         8.54125         0.88740
C         25.85585        10.75711         0.95311
C         25.84556        12.16199         1.09886
C         27.06533         9.96322         1.26982
C         27.11080        12.91615         1.55108
C         25.88828        15.06331         0.96526
C         25.89853        16.43714         0.37894
C         27.15521        14.30776         0.94767
C         27.19616        17.18597         0.56364
C         25.90738        19.26350        -0.11641
C         27.12971        18.57234        -0.03896
C         28.32113         2.10010         0.02213
C         28.34037         3.61497        -0.01319
C         29.56468         1.42452        -0.07206
C         29.58188         4.26166         0.54743
C         28.33330         6.38879         0.69126
C         28.35283         7.82500         0.90666
C         29.58957         5.63017         0.78186
C         29.58331         8.47796         1.12783
C         28.37056        10.70423         1.55133
C         28.39048        12.14949         1.27064
C         29.66981         9.91166         1.61567
C         29.53753        12.78829         0.84159
C         28.32761        14.91670         0.54507
C         28.29236        16.30570        -0.06984
C         29.57466        14.20283         0.57383
C         29.62185        17.00975        -0.09775
C         28.34793        19.14269        -0.43938
C         29.57483        18.42699        -0.43796
C         30.78221         2.07452         0.17691
C         30.73371         3.38805         0.95086
C         31.99931         1.44291        -0.12643
C         32.06016         4.14584         0.98125
C         30.83048         6.33646         1.00030
C         30.82913         7.76960         1.09030
C         32.07699         5.63004         0.96482
C         32.05568         8.49027         1.12462
C         30.84948        10.60696         1.00001
C         30.81503        12.03265         0.53891
C         32.05273         9.91315         0.97748
C         32.02269        12.80728         1.07749
C         30.81827        14.88449         0.32149
C         30.79890        16.31087        -0.02500
C         32.04065        14.20197         0.48189
C         32.08820        16.93916        -0.52009
C         30.76503        19.07744        -0.79294
C         32.03925        18.46298        -0.73288
C         33.26229         2.05919         0.02114
C         33.32645         3.43214         0.58858
C         34.42752         1.44615        -0.44652
C         34.51726         4.24398         0.32698
C         33.30270         6.30857         0.91121
C         33.35715         7.76214         1.33438
C         34.53224         5.62665         0.57863
C         34.57923         8.52235         0.86032
C         33.31861        10.65925         0.87075
C         33.31079        12.02986         0.88922
C         34.57571         9.91190         0.82178
C         34.57737        12.80925         1.13600
C         33.30433        14.87474         0.34324
C         33.30337        16.28583         0.10593
C         34.53922        14.21700         0.58942
C         34.51273        16.94796         0.24014
C         33.12449        19.21522        -1.20233
C         34.47483        18.86938        -0.84743
C         35.69490         2.09484        -0.42155
C         35.75278         3.47927         0.09573
C         36.83741         1.51756        -0.96817
C         37.02217         4.24785        -0.08068
C         35.74701         6.39185         0.38932
C         35.78570         7.78720         0.57204
C         36.90434         5.73436        -0.32604
C         37.03428         8.50372         0.44162
C         35.82248        10.64892         0.70937
C         35.83584        12.05928         0.76867
C         37.05581         9.92916         0.58829
C         37.05266        12.77883         0.66194
C         35.77002        14.89443         0.40131
C         35.76669        16.29595         0.13960
C         37.03919        14.22295         0.50526
C         36.93955        17.00486        -0.29012
C         35.67358        18.92139        -1.49886
C         36.89206        18.28350        -0.98617
C         38.07764         2.23189        -1.10534
C         38.16309         3.55988        -0.70128
C         39.18225         1.65679        -1.85784
C         39.42276         4.29866        -0.74237
C         38.23088         6.43412        -0.17371
C         38.24254         7.78871         0.17994
C         39.42815         5.75628        -0.52965
C         39.55548         8.43062         0.35819
C         38.28313        10.65724         0.59034
C         38.28031        12.05930         0.61445
C         39.57933         9.94587         0.61745
C         39.55953        12.79051         0.71856
C         38.21554        14.96723         0.30792
C         38.18642        16.32369        -0.16316
C         39.52470        14.33431         0.55543
C         39.41338        16.98677        -0.51544
C         38.08943        18.87622        -1.36414
C         39.35495        18.29580        -1.07940
C         40.32221         2.34594        -2.12715
C         40.60459         3.63968        -1.48507
C         41.64305         4.56144        -1.95741
C         40.64835         6.45553        -0.71211
C         40.74802         7.80799        -0.24255
C         41.70456         5.83938        -1.48670
C         41.92917         8.55545        -0.29867
C         40.82394        10.67018         0.30767
C         40.82477        12.10416         0.41378
C         41.96423         9.93239        -0.02355
C         41.98236        12.87074         0.27874
C         40.76221        14.99614         0.12289
C         40.69062        16.36233        -0.35768
C         41.95039        14.27220         0.14489
C         41.85150        17.08252        -0.69497
C         40.54684        18.98297        -1.41652
C         41.77950        18.38408        -1.20484
O         17.77286        14.39007        -1.44812
O         32.92320         3.56651         2.01583
O         16.82357         8.02398         2.02852
O          8.01712        16.27212        -1.84321
O         27.50680        10.28608         2.65388
O         34.51856        18.32058         0.45244
O         40.49961         3.60440        -0.02814
O         10.53471        14.71076         1.53364
O          6.01614         6.84838         2.46212
O         39.73428         8.98233         1.70380
O         11.80487         5.92570         2.29602
O         36.69048         3.73188         1.23328
O         22.35396         5.04057        -1.92091
O          1.99784        13.76686         1.26438
O          3.19704         6.77412         2.15722
O          4.79060         9.34521         2.51321
O         18.19339         7.54104        -1.31883
O         23.77224         7.47120        -1.51290
O          8.43726        11.14204        -0.98842
O         25.38352        16.51149        -0.97556
O         23.65702         3.92051         1.27270
O         25.13684        14.93672         2.22670
O         15.71136         3.90703        -2.23752
O         39.62314        13.68972         1.86494
O          7.33629         4.36677         1.86070
O         16.06514        12.34150         2.36500
H         15.24653        11.96802         2.75819
O         15.94391         5.60235         1.92062
H         16.45848         6.17668         2.53335
O         31.84426        12.97550         2.50486
H         32.72885        13.20483         2.88303
O         27.00446        13.07631         2.99303
H         26.21484        13.64749         3.15530
O         30.43805         3.00434         2.32587
H         31.30833         2.83926         2.75984
O         27.20912         3.92240         2.07395
H         26.34258         4.11637         2.48944
O         27.93111        16.12806        -1.46760
H         28.60198        15.54596        -1.88094
O          4.62215        13.12460         2.26075
H          3.65420        13.16238         2.45491
O          5.98001        15.46551         1.76918
H          5.58224        14.70671         2.27306
O         30.97998        12.02085        -0.91362
H         30.27285        11.46475        -1.30159
O         18.31172         3.77311        -2.55103
H         17.32555         3.81037        -2.75006
O         12.44005         3.45002         2.12813
H         12.02264         4.08645         2.75585
O         30.00163         9.79014         3.04165
H         29.14301         9.78393         3.52638
O         21.07797        16.29786        -1.86855
H         21.95822        15.91068        -2.06465
O         10.85950        10.86447         2.44867
H         10.94198         9.98510         2.87736
O         12.12834        14.04502        -1.68866
H         12.93262        13.59789        -2.02775
O         33.53865         7.70327         2.80272
H         32.73174         7.29710         3.18631
O         32.16829        16.45717        -1.92247
H         31.40211        16.83608        -2.40470
O          2.88656        10.97791         2.37467
H          3.38924        10.40065         3.00145
O         14.72661         6.24934        -1.46460
H         15.11756         5.50870        -2.02669
O         36.57053         5.81624        -1.76690
H         36.49576         6.76663        -1.99843
O         28.26420         3.98822        -1.42222
H         28.94799         3.48241        -1.90914
O         27.46585        17.34497         1.97016
H         27.45345        16.46145         2.39652
O         18.56720        10.81681         2.40633
H         17.76855        11.32211         2.69689
O         34.62868        12.97906         2.61289
H         34.87938        12.11214         3.00038
H          0.40975         1.89877        -1.88882
H          0.23944         4.08997        -0.77501
H          2.63311         0.80551        -2.19647
H          0.16138         5.86082        -0.09478
H          0.13667         8.24315         0.21197
H          0.32161         9.98919        -0.49303
H          0.17458        12.41640        -0.46703
H          0.13363        14.38932        -0.69265
H          0.32039        16.63508        -1.67126
H          1.56075        18.69453        -2.03213
H          5.04277         0.82063        -1.93588
H          3.66756        19.99364        -2.04831
H          7.45456         0.74474        -1.58507
H          6.06968        20.15912        -1.51454
H          9.91186         0.62971        -1.24815
H          8.58407        20.20210        -1.17292
H         12.26882         0.42982        -0.74763
H         11.02722        20.23439        -0.86701
H         14.78815         0.32640        -0.52941
H         13.50432        20.27650        -0.56883
H         17.25191         0.39613        -0.55098
H         15.95190        20.29868        -0.30417
H         19.64250         0.39350        -0.62062
H         18.41768        20.32353        -0.16091
H         22.11965         0.37171        -0.71308
H         20.91414        20.34569        -0.17039
H         24.65465         0.36805        -0.47743
H         23.38895        20.39381        -0.09505
H         27.08584         0.34278        -0.12508
H         25.92711        20.32589        -0.40749
H         29.57497         0.36045        -0.35854
H         28.35982        20.18491        -0.79510
H         31.96376         0.44845        -0.59840
H         30.72001        20.14690        -1.05136
H         34.35849         0.43698        -0.87989
H         32.91978        20.16103        -1.73047
H         36.77904         0.49130        -1.36092
H         35.75331        19.44610        -2.46234
H         39.02749         0.66546        -2.30967
H         38.06522        19.83339        -1.90596
H         41.06930         1.93161        -2.82077
H         42.39431         4.19746        -2.67390
H         42.54433         6.47383        -1.80445
H         42.85946         8.07624        -0.63279
H         42.92198        10.45215        -0.16292
H         42.95505        12.37294         0.16726
H         42.90137        14.77521        -0.07645
H         42.84159        16.62972        -0.55361
H         40.48186        19.99347        -1.84418
H         42.70523        18.92119        -1.45344
