         344
 CSIRO Nanostructure Databank - Neutral Graphene Oxide Data Set
C          1.53946         2.06156        -1.53855
C          1.35921         3.33481        -1.06455
C          2.74780         1.34833        -1.36215
C          2.40476         4.04062        -0.24277
C          1.31958         6.30600        -0.88728
C          1.34981         7.68663        -1.00373
C          2.46641         5.55950        -0.46227
C          2.46822         8.45750        -0.61590
C          1.31483        10.62643        -0.96609
C          1.32365        11.99636        -1.04274
C          2.50303         9.87794        -0.69737
C          2.52580        12.74292        -0.86618
C          1.42747        14.90212        -1.48496
C          1.46107        16.26742        -1.65258
C          2.56121        14.16565        -1.02734
C          2.63646        17.02140        -1.34541
C          2.70268        18.42090        -1.52343
C          3.88447         1.98077        -0.79780
C          3.77073         3.39990        -0.40853
C          5.08061         1.30692        -0.59535
C          4.90137         4.10594        -0.15891
C          3.60646         6.25024        -0.10824
C          3.59589         7.74767         0.08177
C          4.83870         5.52311         0.24216
C          4.94566         8.41667        -0.06964
C          3.72267        10.61212        -0.49699
C          3.72358        12.00668        -0.57952
C          5.04179         9.85612        -0.51144
C          4.99359        12.76353        -0.43989
C          3.76315        14.90270        -0.72219
C          3.77907        16.32406        -0.85080
C          4.93632        14.23637        -0.29825
C          4.95171        17.05254        -0.50297
C          3.87007        19.12417        -1.22804
C          4.99969        18.46705        -0.71247
C          6.26842         2.03356        -0.00983
C          6.22619         3.48020        -0.51415
C          7.59927         1.40833        -0.33030
C          7.46809         4.27502        -0.19306
C          6.11527         6.28459         0.41782
C          6.07275         7.75957         0.28871
C          7.41968         5.65338         0.09956
C          7.28417         8.44496         0.86316
C          6.19948        10.57963         0.15899
C          6.23849        12.04708        -0.02661
C          7.26932         9.93610         0.67880
C          7.35951        12.79338         0.58942
C          6.07288        14.96423         0.12831
C          6.06084        16.36446         0.05896
C          7.21620        14.27484         0.86137
C          7.22473        17.14271         0.61917
C          6.21971        19.18572        -0.40447
C          7.29078        18.58445         0.17481
C          8.72354         2.18035        -0.52819
C          8.68071         3.62415        -0.46326
C         10.01524         1.53367        -0.72716
C          9.84411         4.47538        -0.92382
C          8.62588         6.43976         0.13074
C          8.59828         7.80872         0.47481
C          9.89028         5.82038        -0.20255
C          9.79665         8.56914         0.58782
C          8.47561        10.65248         1.24034
C          8.47642        12.14134         0.98277
C          9.77925         9.96800         0.87140
C          9.70444        12.89041         1.44652
C          8.54779        14.96958         0.68317
C          8.52161        16.40445         0.34237
C          9.72520        14.31497         0.92306
C          9.81588        17.17013         0.38617
C          8.48917        19.38683         0.63211
C          9.80675        18.63528         0.58992
C         11.16370         2.23500        -0.86049
C         11.16564         3.72053        -0.92421
C         12.46942         1.54718        -1.19507
C         12.43575         4.43886        -0.59685
C         11.06963         6.51772         0.00080
C         11.05268         7.89362         0.41978
C         12.42484         5.96219        -0.41144
C         12.26458         8.59475         0.65697
C         10.98381        10.70413         0.96137
C         10.98446        12.13077         1.12215
C         12.24537        10.00212         0.88882
C         12.19255        12.84254         1.12288
C         10.99744        15.01512         0.89015
C         11.03718        16.41760         0.72097
C         12.21103        14.29179         1.09503
C         12.24785        17.13072         0.86810
C         10.98553        19.28246         0.78281
C         12.25369        18.57435         0.82980
C         13.67522         2.23609        -0.57806
C         13.50898         3.58577         0.09039
C         14.85963         1.60491        -0.53443
C         14.80703         4.33321         0.28407
C         13.55040         6.47006         0.46792
C         13.51265         7.87010         0.76530
C         14.72338         5.71871         0.61877
C         14.68271         8.56718         1.12599
C         13.46167        10.71192         1.08136
C         13.44649        12.13687         1.16323
C         14.70720         9.98705         1.18627
C         14.65551        12.85468         1.33939
C         13.44734        14.98790         1.13551
C         13.46682        16.41638         1.03729
C         14.68396        14.27116         1.28616
C         14.70048        17.12667         1.02767
C         13.45655        19.25727         0.86946
C         14.70477        18.55817         0.90960
C         16.00850         2.12944         0.28967
C         16.01905         3.63875         0.37988
C         17.33326         1.56813        -0.13197
C         17.23606         4.30610         0.68182
C         15.91774         6.33362         1.22318
C         15.90712         7.83909         1.47223
C         17.22259         5.67264         1.08056
C         17.19699         8.54277         1.48385
C         15.93091        10.65547         1.42559
C         15.88972        12.10670         1.62223
C         17.19012         9.96310         1.48901
C         17.21852        12.86624         1.56983
C         15.93055        14.98631         1.24315
C         15.93190        16.41190         1.07343
C         17.17214        14.29865         1.24979
C         17.15608        17.11320         0.91029
C         15.92477        19.24450         0.81202
C         17.15727        18.54597         0.76894
C         18.50142         2.24127         0.07471
C         18.50442         3.60851         0.61331
C         19.77675         1.64765        -0.24774
C         19.67747         4.21763         0.99594
C         18.40106         6.36776         1.38441
C         18.40575         7.79911         1.50570
C         19.66157         5.57994         1.66211
C         19.65465         8.50611         1.51120
C         18.44561        10.66686         1.49193
C         18.46171        12.10525         1.34852
C         19.66549         9.92250         1.48805
C         19.62184        12.80731         1.05148
C         18.38330        14.97470         0.98933
C         18.38470        16.39680         0.83169
C         19.61733        14.24014         0.87608
C         19.60031        17.08739         0.58476
C         18.37735        19.22080         0.54687
C         19.59594        18.51615         0.42198
C         20.95239         2.20277         0.19225
C         20.92092         3.35937         1.16828
C         22.20627         1.61444        -0.14558
C         22.23247         4.16213         1.20014
C         20.92517         6.38588         1.43764
C         20.89922         7.75559         1.45068
C         22.22097         5.66267         1.40123
C         22.18863         8.51977         1.65926
C         20.92980        10.61765         1.25928
C         20.94115        12.12701         1.28726
C         22.11786         9.94511         1.17097
C         22.12532        12.75118         0.59650
C         20.79769        14.93172         0.55429
C         20.81487        16.35342         0.42645
C         21.98832        14.16091         0.06192
C         22.01654        17.04685         0.09315
C         20.80310        19.17835         0.08754
C         22.00403        18.46676        -0.10495
C         23.41451         2.24776         0.08880
C         23.46701         3.55779         0.64472
C         24.66728         1.57108        -0.41516
C         24.68634         4.27864         0.69365
C         23.47107         6.43276         1.13965
C         23.45052         7.79635         1.24312
C         24.71759         5.69178         0.95596
C         24.73787         8.58261         1.35122
C         23.31516        10.56457         0.47575
C         23.29311        12.07328         0.48840
C         24.66472         9.97620         0.78961
C         24.59960        12.83557         0.51152
C         23.26724        14.94386         0.05809
C         23.25347        16.31801        -0.05822
C         24.51334        14.15414        -0.25753
C         24.45837        17.02769        -0.49972
C         23.19468        19.14222        -0.51981
C         24.39590        18.46297        -0.76453
C         25.93497         2.15976         0.15427
C         25.92768         3.57538         0.50771
C         27.06711         1.41983         0.17900
C         27.14303         4.22891         0.71626
C         25.94742         6.38262         0.91270
C         25.95945         7.82621         0.89527
C         27.18827         5.65436         0.80345
C         27.10792         8.51773         0.56087
C         25.84051        10.65693         0.42512
C         25.82720        12.05641         0.12409
C         27.09549         9.94215         0.29162
C         26.99368        12.73661        -0.28874
C         25.79447        14.97435        -0.09088
C         25.61604        16.33033        -0.72838
C         26.98653        14.15859        -0.55613
C         26.75621        16.97560        -1.38819
C         25.57656        19.14207        -1.16259
C         26.78042        18.45352        -1.43885
C         28.42028         1.94932         0.56509
C         28.39421         3.45648         0.87328
C         29.41140         1.69389        -0.57032
C         29.70327         4.20572         0.78829
C         28.42518         6.33791         0.66791
C         28.40157         7.80422         0.55679
C         29.65854         5.65595         0.48121
C         29.60832         8.49514        -0.00950
C         28.21708        10.59595        -0.24959
C         28.19767        11.99263        -0.53484
C         29.37065         9.77572        -0.78025
C         29.37997        12.67183        -0.99883
C         28.10672        14.78862        -1.06249
C         28.03391        16.19454        -1.53922
C         29.34718        14.07978        -1.23766
C         29.28042        16.95148        -1.72220
C         27.98389        19.08323        -1.76135
C         29.21983        18.36484        -1.88848
C         30.58211         2.33726        -0.61476
C         30.93934         3.36146         0.45304
C         32.11204         4.20016         0.02321
C         30.81513         6.30100        -0.02217
C         30.78968         7.68628        -0.38615
C         32.03434         5.52758        -0.19725
C         31.85000         8.37181        -0.97952
C         30.65906        10.53059        -1.00910
C         30.61040        11.95914        -1.19535
C         31.80823         9.77249        -1.19007
C         31.75741        12.68837        -1.57473
C         30.52802        14.79448        -1.59829
C         30.51047        16.25593        -1.76083
C         31.72016        14.06427        -1.76024
C         31.68924        16.99928        -1.97568
C         30.42974        19.06833        -2.11346
C         31.63961        18.38666        -2.15284
O         29.38172         8.52718         1.42115
O          9.17899        16.76654        -0.90225
O         16.57497        12.54554         2.84715
O         22.43390         4.74279         2.53705
O         29.12410         3.85439         2.08520
O          5.38475         5.77789         1.62214
O         12.12706         4.12055        -1.99545
O         15.70969         6.87764         2.57087
O         27.09288        16.32943        -2.68406
O          6.03141        12.39907        -1.46407
O         21.68624        13.91639        -1.37463
H         22.55183        13.67667        -1.79483
O         24.96069         8.77745         2.80981
H         24.06279         8.84271         3.22883
O         13.00086         3.30518         1.43961
H         13.16891         4.09430         1.99880
O         12.71268         6.56694        -1.70917
H         12.44121         5.91386        -2.39553
O         23.10339        10.20452        -0.95218
H         22.37761        10.77059        -1.29361
O         26.05462        15.30534         1.29937
H         25.76657        14.54328         1.86103
O         31.32357         2.61547         1.64060
H         31.13624         3.18936         2.41593
O         22.27799         8.64733         3.14298
H         22.06070         7.76701         3.52346
O         20.79042         2.74463         2.48011
H         20.93907         3.47207         3.13068
O         21.19946        12.44158         2.71215
H         21.89306        11.82689         3.03540
O         19.64798         5.30625         3.11898
H         18.78875         4.87695         3.32257
O          5.40586         9.78071        -1.92971
H          5.65025        10.70298        -2.19772
O         15.74593         1.65070         1.65527
H         14.84943         1.97446         1.89948
O         24.75952        13.13067         1.94662
H         25.00913        12.29353         2.39434
O          9.53139         4.78856        -2.32252
H         10.38916         4.95485        -2.77433
O         24.60121         0.15989        -0.20695
H         24.57257        -0.00636         0.75765
O         12.61050         1.49268        -2.62503
H         12.57710         2.42226        -2.94584
O          6.85726        14.36304         2.27737
H          6.98071        15.30691         2.54448
O          9.66574        12.99337         2.89889
H          9.25058        12.16072         3.23103
O         28.93221         9.32112        -2.11117
H         28.81339        10.11639        -2.67273
O         28.88161         1.21488         1.71321
H         29.79015         1.55160         1.91703
O         24.42214        13.77718        -1.66760
H         24.66416        14.56421        -2.20365
O          6.11716         2.05829         1.44243
H          6.13490         1.13324         1.76435
O          8.40019        10.55679         2.70839
H          8.01904         9.66791         2.92332
O          7.08770        17.16212         2.09406
H          6.20300        17.53742         2.29580
O          1.99769         3.87798         1.15496
H          2.70501         4.26431         1.71456
O          3.32448         7.92018         1.53184
H          3.96548         7.33478         2.00124
O          7.14818         8.20594         2.31850
H          6.92922         7.25586         2.44883
O          6.21870         3.42904        -1.97759
H          7.14585         3.48424        -2.29668
O          8.24898        19.77652         2.00460
H          8.06965        18.95008         2.50819
H          0.70859         1.56208        -2.05919
H          0.37477         3.80917        -1.18276
H          2.81691         0.30150        -1.69038
H          0.40231         5.77654        -1.17676
H          0.46956         8.18511        -1.43408
H          0.36014        10.09869        -1.09302
H          0.37764        12.51865        -1.23717
H          0.50069        14.36866        -1.73563
H          0.57267        16.79630        -2.02698
H          1.82514        18.95527        -1.91474
H          5.15040         0.23223        -0.82785
H          3.90952        20.21081        -1.39226
H          7.69434         0.31101        -0.30355
H          6.26396        20.25791        -0.65332
H         10.04118         0.43350        -0.75110
H          8.56712        20.33211         0.03790
H         12.43144         0.48676        -0.83671
H         10.99817        20.37544         0.91126
H         14.95858         0.60102        -0.97721
H         13.46423        20.35673         0.83278
H         17.35954         0.53921        -0.52283
H         15.92393        20.34025         0.71378
H         19.79636         0.73337        -0.86057
H         18.37249        20.31395         0.42174
H         22.21289         0.64439        -0.66538
H         20.79356        20.26878        -0.05854
H         24.70609         1.72169        -1.53364
H         23.15262        20.23126        -0.67174
H         27.01266         0.36019        -0.11646
H         25.55570        20.23910        -1.24854
H         29.17082         0.91967        -1.31536
H         28.00990        20.17974        -1.85264
H         31.32116         2.11439        -1.39946
H         33.07168         3.67731        -0.10194
H         32.94326         6.06097        -0.50910
H         32.78247         7.84828        -1.23074
H         32.74441        10.25803        -1.50009
H         32.71178        12.16753        -1.72764
H         32.64811        14.57561        -2.04797
H         32.66618        16.49978        -2.01423
H         30.40286        20.15912        -2.24721
H         32.57315        18.94097        -2.32345
