         671
 CSIRO Nanostructure Databank - Neutral Graphene Oxide Data Set
C          5.94407        31.69759        -0.01415
C          5.96621        33.06426        -0.01482
C          8.30996        27.42081         0.13583
C          8.33867        28.77104        -0.16703
C          7.16119        29.56154         0.01482
C          8.34644        31.60871        -0.72875
C          7.13354        30.91928        -0.22774
C          8.35330        33.10891        -0.80441
C          7.18378        33.80869        -0.22315
C          8.55591        35.82175         0.12075
C          7.30158        35.11029         0.18593
C          8.49087        37.22889         0.69180
C         10.74344        23.14727         0.66636
C         10.66531        24.52578         0.76156
C          9.45803        25.24377         0.44648
C         10.79764        27.25286        -0.04969
C          9.48156        26.60280         0.18537
C         10.84770        28.67529        -0.56692
C          9.54150        29.40602        -0.86395
C         10.84944        31.61067        -0.61280
C          9.62957        30.89867        -0.65490
C         10.91530        33.02311        -0.65094
C          9.67987        33.85502        -1.00064
C         10.97520        36.02278        -0.52203
C          9.69554        35.23148        -0.35546
C         11.00720        37.22838         0.45663
C          9.73240        38.03222         0.43533
C         10.93007        40.17525         0.18758
C          9.71312        39.38434         0.30855
C         10.93864        41.54633         0.03817
C         13.27324        18.86984         0.97312
C         13.24169        20.24896         1.13130
C         12.04978        21.01781         0.81677
C         13.08693        23.13926         1.51776
C         11.92268        22.38703         0.98774
C         13.04943        24.63679         1.66564
C         11.75174        25.39649         1.39559
C         13.20956        27.33150         0.52750
C         11.96999        26.67576         0.61437
C         13.35457        28.60290        -0.28591
C         12.09256        29.45990        -0.37252
C         13.37678        31.55953        -0.50489
C         12.09659        30.83462        -0.48073
C         13.48620        32.93844        -0.47756
C         12.24331        33.73678        -0.85974
C         13.43727        35.83626        -0.10418
C         12.24380        35.18272        -0.37589
C         13.47846        37.35898        -0.17601
C         12.19870        38.06781         0.16733
C         13.44262        40.17589         0.12454
C         12.18289        39.43718         0.17256
C         13.41770        41.59588        -0.01597
C         12.17089        42.30007        -0.08158
C         13.40787        44.42914        -0.32699
C         12.18623        43.69330        -0.23427
C         13.42711        45.83840        -0.55395
C         15.55892        14.45072         0.36395
C         15.64893        15.94305         0.65731
C         14.48143        16.69295         0.71541
C         15.73275        18.73878         1.17797
C         14.48714        18.09421         1.01200
C         15.79721        20.14848         1.60910
C         14.45789        20.95595         1.59929
C         15.45377        23.31228         2.02590
C         14.43527        22.46311         1.32948
C         15.57124        24.63060         1.74971
C         14.32373        25.48862         1.81514
C         15.70955        27.37917         0.81359
C         14.38318        26.75080         1.00282
C         15.82612        28.83201         0.51903
C         14.59203        29.42693         0.06639
C         16.35054        31.76250        -0.07000
C         14.53430        30.68786        -0.50531
C         16.01803        33.04754         0.19613
C         14.83049        33.72372        -0.50182
C         15.87776        35.89806         0.32196
C         14.69137        35.15625         0.00424
C         15.87297        37.27698         0.45447
C         14.58697        38.01029         0.63836
C         15.89066        40.20157         0.30305
C         14.64322        39.49235         0.31279
C         15.86632        41.62495         0.15357
C         14.65070        42.31676        -0.00970
C         15.88426        44.46555        -0.31163
C         14.64639        43.74640        -0.17998
C         15.88617        45.83808        -0.67025
C         14.62258        46.54272        -0.73764
C         15.83037        48.65497        -1.15591
C         14.64578        47.96334        -0.91390
C         15.87093        50.06040        -1.23147
C         18.27345        10.60141        -1.65527
C         18.33353        11.89280        -0.85418
C         17.04801        12.69327        -0.65825
C         18.01384        14.40903         0.96884
C         16.91454        13.77577         0.15057
C         18.15681        15.89330         0.82607
C         16.91227        16.60416         0.78999
C         18.18714        18.70246         0.76030
C         16.94025        18.02230         0.92830
C         18.18670        20.13028         0.84771
C         17.11990        20.79193         1.42421
C         18.25391        22.99073         1.16626
C         17.34730        22.17250         1.75395
C         18.13487        24.50121         1.14839
C         16.93188        25.27027         1.93001
C         18.18722        27.39663         1.50381
C         16.94553        26.63469         1.25546
C         18.19209        28.76307         1.36553
C         17.04698        29.49653         0.82532
C         18.33135        31.61805         1.27969
C         17.26410        30.92968         0.69513
C         18.42082        33.10240         1.00007
C         17.03413        33.81774         1.00241
C         18.37262        35.91859         1.01120
C         17.22360        35.18589         0.33162
C         18.27007        37.40881         1.15420
C         17.16765        38.00630         0.24546
C         18.42565        40.19391         0.18766
C         17.10590        39.50132         0.38658
C         18.39066        41.68555         0.31409
C         17.10027        42.42873         0.43593
C         18.33522        44.43064        -0.49434
C         17.12683        43.78924        -0.20062
C         18.34580        45.81376        -0.81328
C         17.11798        46.50100        -0.89409
C         18.36842        48.65924        -1.27820
C         17.08825        47.88428        -1.48271
C         18.33762        50.03098        -1.44695
C         17.08233        50.76236        -1.41926
C         18.26644        52.93911        -1.48357
C         17.08052        52.17414        -1.47158
C         18.23439        54.34508        -1.58397
C         20.76656         6.50080        -3.05089
C         20.74002         7.81834        -2.62961
C         19.38332         8.45678        -2.37304
C         20.72218        10.51688        -1.73901
C         19.43381         9.90050        -1.91186
C         20.74693        11.97551        -1.54659
C         19.50100        12.75253        -1.39648
C         20.67844        14.61747        -0.22914
C         19.62845        14.18043        -0.97963
C         20.69916        15.80367         0.71738
C         19.38607        16.56859         0.72233
C         20.65725        18.70484         0.45370
C         19.40889        17.99269         0.59705
C         20.61974        20.14520         0.07705
C         19.33698        20.89080         0.29889
C         20.66958        23.08753         0.55332
C         19.31466        22.42726         0.23947
C         20.70563        24.43017         1.03187
C         19.46812        25.12576         1.52699
C         20.71571        27.32039         1.41181
C         19.44351        26.61711         1.74981
C         20.69945        28.80484         1.39577
C         19.42943        29.46716         1.92104
C         20.70287        31.66109         1.97057
C         19.50307        30.96670         1.75729
C         20.74667        33.10155         1.91197
C         19.42099        33.82852         1.90968
C         20.70294        36.04447         1.87277
C         19.48886        35.30580         1.54974
C         20.78133        37.46342         1.65982
C         19.63292        38.08061         0.88563
C         20.83978        40.27251         0.96103
C         19.51058        39.58963         1.09871
C         20.80962        41.69504         0.62363
C         19.56871        42.34120         0.14905
C         20.90454        44.34239        -0.97240
C         19.55563        43.56648        -0.74785
C         20.84425        45.84489        -0.70099
C         19.62732        46.52821        -0.90560
C         20.84199        48.67086        -1.06621
C         19.61329        47.94668        -1.09517
C         20.85541        50.08395        -1.31548
C         19.59558        50.76971        -1.76463
C         20.72146        52.93651        -1.36750
C         19.55421        52.24372        -1.47667
C         20.68355        54.40994        -1.25068
C         19.42106        55.12017        -1.58183
C         20.67227        57.24563        -1.92524
C         19.44865        56.50431        -1.74999
C         20.70357        58.58412        -2.20399
C         23.24025         3.85666        -4.03654
C         22.02833         4.47775        -3.74406
C         23.22128         6.55348        -3.22055
C         21.99561         5.83173        -3.33383
C         23.21117         7.91365        -2.79318
C         21.97119         8.53234        -2.46757
C         23.21214        10.62629        -1.96117
C         21.95779         9.89750        -2.02518
C         23.24629        11.95135        -1.39386
C         21.97881        12.51158        -0.92523
C         23.20668        14.53356        -0.05022
C         21.92730        13.80489        -0.17157
C         23.18687        15.94970         0.26907
C         21.95095        16.61823         0.48152
C         23.14502        18.79297         0.57849
C         21.88618        18.02447         0.49044
C         23.13545        20.26609         0.31991
C         21.89479        20.95317        -0.23295
C         23.10885        23.10872         0.34591
C         21.87316        22.41849         0.24954
C         23.14353        24.47355         0.73782
C         21.93061        25.11767         1.09513
C         23.20665        27.29873         1.24002
C         21.98466        26.52547         1.65283
C         23.20794        28.73085         1.58273
C         21.98420        29.61616         1.36612
C         23.31708        31.63091         2.28183
C         21.94721        30.83392         2.31569
C         23.19042        33.10031         1.92019
C         21.92835        33.82744         1.95807
C         23.15292        36.00390         2.04368
C         21.94536        35.30456         2.00924
C         23.17156        37.51768         2.37016
C         21.95315        38.21603         1.78468
C         23.22458        40.43138         1.42370
C         21.99939        39.63408         1.38747
C         23.33145        41.73102         0.92324
C         22.09113        42.44310         0.51690
C         23.42206        44.44789        -0.17940
C         22.16773        43.65030        -0.36682
C         23.33678        45.91159        -0.37542
C         22.08713        46.56358        -0.64446
C         23.30597        48.71842        -0.84197
C         22.07311        47.98882        -0.82031
C         23.29747        50.14181        -1.09671
C         22.04842        50.79932        -1.31421
C         23.25030        53.03390        -1.30551
C         22.02818        52.25538        -1.73520
C         23.23894        54.40080        -1.23869
C         21.96560        55.16215        -1.30190
C         23.19435        57.31619        -1.71817
C         21.97615        56.48021        -2.04059
C         23.21399        58.62668        -2.07782
C         21.97358        59.23358        -2.70204
C         23.12254        61.43314        -2.41687
C         21.96973        60.73422        -2.61399
C         24.44491         4.56095        -3.94721
C         25.66306         6.67784        -3.49655
C         24.45344         5.91250        -3.54778
C         25.66587         8.00788        -3.13448
C         24.44259         8.65911        -2.74406
C         25.67155        10.87208        -2.55658
C         24.42822        10.01578        -2.32709
C         25.71041        12.25086        -1.80858
C         24.41723        12.63975        -1.11772
C         25.67680        14.55189         0.04368
C         24.39272        13.89195        -0.41667
C         25.67861        16.03894        -0.26288
C         24.40523        16.69817         0.21041
C         25.66146        18.79324         0.46844
C         24.42732        18.07933         0.42022
C         25.69056        20.22656         0.39725
C         24.44176        20.92419         0.02207
C         25.66362        23.12314         0.37327
C         24.40350        22.43997         0.06636
C         25.63260        24.53403         0.56040
C         24.40035        25.20564         0.74866
C         25.64003        27.37607         0.81631
C         24.39783        26.63369         0.97267
C         25.66157        28.78106         0.90415
C         24.49023        29.48559         1.43116
C         25.56116        31.65974         1.15824
C         24.44200        30.96604         1.46642
C         25.67776        33.09084         1.59035
C         24.33052        33.77333         1.62852
C         25.71485        35.66525         2.04850
C         24.36404        35.26902         1.52611
C         25.69900        37.81859         2.35092
C         24.45558        38.28799         2.02329
C         25.72818        40.53534         2.07584
C         24.42617        39.76287         1.95103
C         25.68984        42.05399         1.89033
C         24.53716        42.53277         1.00406
C         25.74116        44.68846         0.72014
C         24.56177        43.86227         0.58583
C         25.73256        46.00355         0.28970
C         24.52069        46.65709        -0.19990
C         25.78889        48.74957        -0.66701
C         24.51122        48.04120        -0.53183
C         25.79648        50.22693        -0.98462
C         24.49826        50.91261        -1.06498
C         25.66673        53.07165        -0.74354
C         24.47534        52.32764        -1.05020
C         25.75007        54.48345        -0.84075
C         24.44994        55.18014        -0.91771
C         25.70247        57.36398        -1.39178
C         24.41095        56.68176        -1.16197
C         25.67039        58.72576        -1.72835
C         24.44384        59.40882        -1.97591
C         24.37666        60.78811        -2.17670
C         26.97415         8.77314        -3.21826
C         28.10531        10.52699        -1.88277
C         26.96299        10.07219        -2.43858
C         28.15902        11.74763        -1.04325
C         26.88186        12.49531        -0.86393
C         28.15674        14.54109        -0.21627
C         26.95666        13.90000        -0.41050
C         28.18022        15.96383         0.15983
C         26.94467        16.69555         0.25390
C         28.12421        18.77199         0.95079
C         26.89902        18.05737         0.55077
C         28.09988        20.29342         1.11558
C         26.86920        20.95888         0.53619
C         28.11990        23.10974         0.58937
C         26.87510        22.39656         0.46796
C         28.12918        24.53357         0.51816
C         26.87719        25.25979         0.52335
C         28.07016        27.42854         0.29496
C         26.84352        26.66237         0.52861
C         28.05118        28.87752         0.51745
C         26.85483        29.53899         0.67773
C         28.04770        31.79036         0.86427
C         26.77279        31.04230         0.48351
C         28.06591        33.14157         0.94054
C         26.75231        33.87807         0.78478
C         28.05256        36.06773         1.24390
C         26.84284        35.22997         1.45158
C         28.07042        37.59483         1.38391
C         26.94681        38.41381         1.92160
C         28.20001        40.46448         1.40542
C         26.98808        39.79140         1.81044
C         28.18258        41.92439         1.32867
C         27.01536        42.65214         1.48621
C         28.26573        44.75990         0.90629
C         26.98951        44.16356         1.44289
C         28.26605        46.13641         0.61067
C         26.96103        46.81964         0.50433
C         28.27720        48.95241        -0.15716
C         26.98727        48.24660         0.05360
C         28.26993        50.34156        -0.36816
C         26.98254        50.98083        -0.54174
C         28.62446        53.39451        -0.58350
C         26.79133        52.31903        -0.28400
C         28.28143        54.61831        -1.15490
C         26.97588        55.23407        -0.99819
C         26.89852        56.62582        -1.27501
C         29.40438        12.50389        -0.82863
C         30.73425        14.50074        -0.20055
C         29.40448        13.81620        -0.44800
C         30.66152        16.00382        -0.02890
C         29.40420        16.64096         0.25543
C         30.65391        18.84456         0.47690
C         29.43645        18.04673         0.70448
C         30.61516        20.26841         0.54859
C         29.38687        20.97945         0.69768
C         30.60342        23.11613         0.60611
C         29.36695        22.39211         0.63339
C         30.60341        24.53827         0.64891
C         29.36499        25.22969         0.55882
C         30.63671        27.42063         0.67555
C         29.40811        26.67915         0.35322
C         30.61401        28.84308         0.68871
C         29.32136        29.56335         0.80098
C         30.56708        31.79903         1.01011
C         29.30192        31.02899         1.10019
C         30.56488        33.15701         1.11838
C         29.28568        33.87700         1.49340
C         30.49683        36.05819         0.88156
C         29.32870        35.35917         1.15441
C         30.49099        37.51822         0.81550
C         29.37638        38.27033         1.18713
C         30.61833        40.41954         0.87688
C         29.37144        39.72664         1.15487
C         30.66477        41.84675         0.92778
C         29.44284        42.60930         1.07670
C         30.73126        44.69089         0.47121
C         29.45384        44.00095         0.89360
C         30.74727        46.18784         0.79960
C         29.46257        46.86042         0.38686
C         30.74190        48.91410        -0.19659
C         29.48448        48.22664         0.03275
C         30.72166        50.27831        -0.52274
C         29.53159        51.06001        -0.53937
C         29.63780        52.44284        -0.86972
C         31.82641        16.73889        -0.05928
C         33.05074        18.90473        -0.01231
C         31.85260        18.17223         0.13117
C         33.07348        20.30769         0.15260
C         31.83915        20.99586         0.39022
C         33.06701        23.13879         0.48020
C         31.83831        22.41483         0.49680
C         33.05647        24.53988         0.69606
C         31.84622        25.25164         0.73589
C         33.05639        27.41097         1.05086
C         31.86191        26.70407         0.83311
C         33.00583        28.86298         1.18368
C         31.77770        29.57600         0.86443
C         33.07235        31.78626         0.85406
C         31.79173        31.05194         0.54865
C         33.04478        33.19585         0.79285
C         31.78424        33.92001         0.87581
C         32.98768        35.99863         0.36780
C         31.74099        35.30149         0.73847
C         32.96373        37.47815         0.09410
C         31.63981        38.25231         0.13319
C         33.03014        40.35451         0.41676
C         31.78828        39.69142         0.57658
C         33.08494        41.77656         0.52508
C         31.90569        42.50486         0.74976
C         33.21485        44.66855         0.46665
C         31.97981        43.98900         1.03120
C         33.17939        46.05988         0.18952
C         32.00126        46.83062         0.24423
C         31.96236        48.17605        -0.13847
C         34.28443        21.05926         0.05257
C         35.51854        23.21608         0.10540
C         34.30932        22.44505         0.23887
C         35.56246        24.57516         0.39347
C         34.34584        25.22934         0.92013
C         35.62770        27.50068         0.91186
C         34.36482        26.72863         1.15340
C         35.58036        28.89223         1.05805
C         34.31426        29.64500         1.23132
C         35.52313        31.80122         0.78206
C         34.29594        31.08732         0.90927
C         35.51263        33.19950         0.73404
C         34.28373        33.91687         0.75185
C         35.49651        36.04563         0.39207
C         34.27754        35.32799         0.59837
C         35.46788        37.47460         0.19043
C         34.25191        38.20343         0.19659
C         35.50618        40.31761         0.13321
C         34.25725        39.61373         0.23105
C         35.51140        41.74700         0.14185
C         34.34604        42.47717         0.33249
C         34.35725        43.90939         0.25345
C         36.70515        25.38791         0.15419
C         37.94584        27.44233        -0.17783
C         36.78132        26.77133         0.38704
C         38.41018        28.67019         0.24505
C         36.74643        29.72267         1.09629
C         38.02251        31.75404         0.41079
C         36.78747        31.07955         0.79607
C         38.00194        33.15420         0.33800
C         36.81885        33.93347         0.88269
C         37.93874        36.05381         0.09820
C         36.73446        35.36421         0.41175
C         37.91995        37.45210        -0.05719
C         36.71136        38.18168         0.05129
C         36.70030        39.59550        -0.00491
C         39.25651        29.64163        -0.37809
C         40.27457        31.81186        -0.63717
C         39.17023        31.02159        -0.14161
C         40.29453        33.17167        -0.57556
C         39.14494        33.90183        -0.10803
C         39.13548        35.29595        -0.13024
O         34.47774        25.77860         2.27771
O         24.96809        40.21612         3.28451
O         23.20565        43.56898        -1.38674
O         27.73752        36.94394         0.08624
O         15.04168        20.47278         2.82688
O         19.65503        20.32647        -1.03444
O         18.64673        13.75930         1.80481
O         27.27022        11.53552         0.15670
O         29.23000        30.09417         2.22431
O         21.27955        42.64353         1.72728
O         15.68435        31.15198        -1.14221
O         20.57566        28.04696         0.14628
O         20.06603        12.60099        -2.74184
O         24.23550        56.14566         0.18822
O          8.03853        32.33188        -2.01027
O         26.73496        47.92617         1.46201
O         19.74625        50.66519        -3.33236
O         23.07720        19.79822         1.68609
O         33.61857        29.34485         2.48246
O         21.26734        55.04728        -0.02814
O         11.03427        27.54878        -1.49375
O         28.79904        27.07271        -0.93633
O         16.52724        26.58342        -0.14285
O         28.84565        18.16780         2.07277
O         24.48236        21.68245        -1.20590
O         32.95205        36.54168        -1.04333
O         19.56830        25.68436         2.86077
O         24.03424        28.99486         2.76920
O         37.92727        29.10410         1.49964
O         21.85409        12.53240         0.55542
O         16.49789        22.71104         2.72547
O         27.75409        52.99447         0.46065
O         12.89027        23.75121         2.83640
O         26.06198        49.21888        -2.02371
O         25.79377        36.61833         3.05718
O         22.11874        56.12111        -3.44951
H         22.06267        56.96691        -3.96325
O         25.68652        14.43850         1.49438
H         25.73019        13.48697         1.72735
O         18.61326        51.30350        -3.93799
H         18.87664        52.25513        -3.98944
O         13.74676        37.64155        -1.57694
H         12.96507        37.31183        -2.08087
O         28.06678         7.94075        -2.82800
H         27.93098         7.67450        -1.89563
O         25.69695        16.17997        -1.71351
H         25.67961        17.13608        -1.92782
O         16.51025        34.00950         2.32513
H         17.26271        34.15367         2.95064
O         24.40105        35.63774         0.08061
H         23.50039        35.48644        -0.28202
O         15.16685        33.85233        -1.91072
H         15.28165        32.94103        -2.26090
O         30.79255        44.60893        -0.97626
H         30.79798        43.66130        -1.22839
O         19.00215        22.77297        -1.13019
H         19.35324        22.04759        -1.69654
O         17.52194        37.72638        -1.15591
H         16.85020        38.16948        -1.71829
O         18.66523        15.02019        -1.49059
H         18.14072        14.52931        -2.15471
O         12.41085        33.88020        -2.32203
H         11.49927        33.98273        -2.70079
O         20.88947        15.25686         2.05054
H         20.19866        14.56441         2.20416
O         28.00123        20.55182         2.55335
H         28.47779        19.81109         2.99813
O         31.67918        14.15328        -1.22160
H         31.33631        14.47745        -2.07932
O         21.11591        44.36168        -2.41559
H         22.08904        44.23024        -2.55874
O         14.75402        22.59674        -0.09649
H         14.04870        22.14481        -0.60858
O         31.20289        38.38297        -1.25681
H         31.49515        37.55964        -1.71580
O         30.79036        46.35607         2.25197
H         30.62028        47.30034         2.45430
O          9.26600        29.23049        -2.28670
H          9.69651        28.38109        -2.54731
O         32.04020        44.06352         2.47431
H         31.77457        44.97394         2.74888
O         26.93065        44.68196         2.80554
H         26.27501        44.13069         3.30024
O         26.58984        31.20522        -0.95213
H         26.48099        32.17690        -1.12173
O         29.13038        33.80690         2.94758
H         28.19726        33.55472         3.14995
O         26.18277        33.05792         2.96588
H         25.50306        32.56133         3.49390
O         21.76830        30.30993         3.63691
H         21.66884        31.05952         4.25898
O         17.58808        35.00294        -1.05699
H         17.68437        35.91040        -1.43940
O         17.83759        37.59501         2.52371
H         18.17904        38.46580         2.84803
O         19.10338        39.87336         2.47065
H         18.97355        40.84475         2.55338
O         19.41315        29.18987         3.34963
H         18.59760        29.57735         3.72901
O         26.40227        33.94331        -0.61060
H         25.69044        34.63055        -0.69592
O         23.83904        31.63655         3.64579
H         23.92613        30.68121         3.89085
O         14.68788        14.21978        -0.74469
H         14.93057        14.83433        -1.46650
O         13.63418        28.13056        -1.63779
H         13.65678        28.90465        -2.23853
O         22.11617        30.16552         0.03461
H         21.71689        29.51687        -0.59016
O         14.20016        37.86640         2.04486
H         15.00368        37.99881         2.59295
O         25.56250        11.19321        -3.98814
H         25.25269        10.38918        -4.45611
O         19.03804        33.17099        -0.30452
H         18.36118        32.97736        -0.98807
O          9.75598        34.13716        -2.45907
H          9.24033        33.39981        -2.88010
O         18.81428        40.00799        -1.22469
H         18.87160        40.89891        -1.65310
O         17.02014        47.67041        -2.94119
H         17.88179        47.29847        -3.22659
O         37.04994        34.03209         2.34272
H         37.09832        33.11556         2.69065
O         17.02460        42.70395         1.90162
H         16.19599        43.20801         2.05580
O         22.05533        20.94803        -1.66485
H         21.15626        20.98489        -2.06255
O         18.95104        33.77681         3.29678
H         19.51803        34.37792         3.82544
O          7.31837        37.89554         0.21398
H          7.39872        37.99657        -0.75655
O         11.17840        36.67029         1.79781
H         11.98294        37.07173         2.19620
O         10.98347        36.58850        -1.86734
H         10.64772        35.88644        -2.47401
O         18.01998        24.81691        -0.24563
H         17.29398        24.29479        -0.64498
O         14.31014        25.96617         3.19590
H         14.07373        25.19698         3.76180
O         19.23147        42.88351        -2.01328
H         19.76898        43.32599        -2.72028
O         23.04118        37.59148         3.82482
H         23.88127        37.25601         4.20749
O         22.03960        58.88910        -4.14838
H         22.81250        59.36662        -4.51995
O         11.21670        25.79427         2.69169
H         11.39144        25.04442         3.30494
O         25.92795        13.29476        -2.79147
H         25.47099        13.02905        -3.62074
O         22.06079        52.25904        -3.19913
H         21.34021        51.65398        -3.51021
O         25.35844        42.63390         3.19146
H         24.90258        41.91618         3.70286
O         20.05118        37.81868        -0.46781
H         19.43721        38.28205        -1.08929
O         17.19218        25.42320         3.32119
H         17.16105        24.53363         3.73368
O         22.09442        26.42251         3.10366
H         22.96305        26.02515         3.32140
O         18.56790         8.33741        -3.55160
H         18.98929         8.85734        -4.26627
O         31.71220        31.07210        -0.93377
H         31.74466        32.01148        -1.21851
O         18.77191        11.42784         0.44837
H         18.80055        12.17839         1.09413
H          5.01089        31.16517         0.22205
H          5.05559        33.62792         0.23626
H          7.35822        26.97313         0.46427
H          6.25674        29.06558         0.40177
H          6.43721        35.63246         0.62100
H          8.36643        37.12889         1.80669
H          9.87472        22.59842         0.26899
H          8.49808        24.70362         0.43889
H          8.74475        39.90966         0.32118
H          9.98620        42.09738         0.00808
H         12.34608        18.34952         0.68636
H         11.18417        20.45472         0.43338
H         11.23355        44.24009        -0.30218
H         12.47081        46.37971        -0.61520
H         15.08436        13.94528         1.25081
H         13.51615        16.19172         0.54946
H         13.70445        48.52513        -0.81019
H         14.93961        50.63211        -1.09765
H         17.29939        10.11740        -1.82384
H         16.14006        12.35278        -1.18859
H         16.11362        52.69961        -1.46312
H         17.26263        54.84696        -1.70721
H         19.82047         5.95445        -3.17889
H         18.86371         7.85644        -1.57813
H         18.49706        57.04960        -1.85032
H         19.77548        59.17654        -2.20625
H         23.25007         2.80351        -4.35079
H         21.08584         3.91844        -3.83095
H         23.10123        62.53296        -2.43804
H         21.02605        61.26417        -2.81044
H         25.39372         4.06404        -4.19513
H         26.61278         6.19753        -3.77570
H         26.61488        59.28552        -1.80562
H         25.28736        61.39769        -2.09466
H         27.14706         9.02674        -4.30407
H         29.01329         9.90537        -1.95860
H         29.00885        55.14255        -1.79329
H         27.84407        57.15999        -1.45629
H         30.36427        12.01213        -1.05126
H         31.15099        14.08307         0.75900
H         31.68045        50.78680        -0.70727
H         30.56411        52.77895        -1.36137
H         32.77391        16.22407        -0.27685
H         33.98319        18.37175        -0.25002
H         34.10165        46.53960        -0.17742
H         32.89422        48.67533        -0.44668
H         35.22306        20.52422        -0.15600
H         36.43027        22.70771        -0.24385
H         36.46771        42.27304         0.00360
H         35.29055        44.40497        -0.05796
H         37.58636        24.89845        -0.28910
H         38.42992        26.95462        -1.03774
H         38.85919        37.99020        -0.25252
H         37.65084        40.13718        -0.11834
H         40.03825        29.29350        -1.07208
H         41.14466        31.27277        -1.04065
H         41.17320        33.73374        -0.92361
H         40.04547        35.83218        -0.43964
