         404
 CSIRO Nanostructure Databank - Neutral Graphene Oxide Data Set
C          1.82867         2.14189         2.90148
C          1.78537         3.54059         2.78916
C          2.92857         1.43032         2.44619
C          2.81362         4.24126         2.13978
C          1.69024         6.52996         2.54977
C          1.62753         7.87475         2.36829
C          2.93940         5.75774         2.22695
C          2.65516         8.63410         1.69619
C          1.59425        10.82724         2.12472
C          1.62075        12.21136         2.07413
C          2.60123        10.02024         1.52988
C          2.65371        12.93610         1.44437
C          1.77755        15.13538         2.21038
C          1.78246        16.52942         2.19097
C          2.73633        14.36095         1.50821
C          2.69980        17.23900         1.40490
C          2.74840        18.66587         1.38408
C          3.99801         2.10888         1.80662
C          3.89735         3.51451         1.60679
C          5.18851         1.42212         1.42522
C          4.95317         4.17159         0.80172
C          3.67640         6.38531         1.05121
C          3.66899         7.86980         0.93327
C          4.86766         5.64643         0.51599
C          4.88073         8.56721         0.42284
C          3.62089        10.68219         0.67643
C          3.64761        12.20568         0.63464
C          4.85441         9.94430         0.33483
C          4.91431        12.89923         0.28099
C          3.78615        15.03159         0.78486
C          3.66135        16.47793         0.60354
C          4.90937        14.34142         0.28383
C          4.91481        17.24429         0.06440
C          3.84986        19.34790         0.92498
C          5.02805        18.67036         0.45230
C          6.31959         2.09660         0.92283
C          6.25210         3.50602         0.64334
C          7.52496         1.40172         0.65053
C          7.34506         4.22039         0.12145
C          6.10233         6.39053         0.18387
C          6.07110         7.81201         0.08986
C          7.26246         5.63878        -0.10804
C          7.27624         8.54812        -0.23002
C          5.94725        10.69073        -0.39763
C          6.04286        12.17334        -0.07385
C          7.26613         9.95899        -0.32997
C          7.27250        12.86854        -0.36767
C          6.08651        15.05543        -0.18882
C          6.12010        16.45800        -0.17304
C          7.26719        14.26914        -0.48795
C          7.29292        17.30246        -0.64846
C          6.25920        19.28932         0.48638
C          7.47096        18.58968         0.13414
C          8.65451         2.06505         0.14612
C          8.59354         3.50259        -0.11058
C          9.85134         1.34282        -0.07580
C          9.72258         4.15289        -0.57367
C          8.43533         6.36759        -0.62988
C          8.49633         7.83238        -0.44269
C          9.72460         5.60218        -0.88032
C          9.71863         8.51010        -0.55873
C          8.48194        10.67159        -0.47730
C          8.50219        12.11136        -0.52219
C          9.71745         9.94610        -0.51693
C          9.74355        12.79261        -0.61080
C          8.51850        14.93589        -0.87824
C          8.57340        16.51319        -0.82591
C          9.78027        14.21842        -0.73210
C          9.84970        17.09153        -0.49535
C          8.68928        19.14472         0.37494
C          9.98337        18.39628         0.24590
C         11.02811         1.96653        -0.53681
C         10.94172         3.39724        -0.87430
C         12.25351         1.29988        -0.67424
C         12.27321         4.18866        -0.94313
C         11.00119         6.35257        -0.78965
C         10.97706         7.76601        -0.66188
C         12.23459         5.65859        -0.73911
C         12.20738         8.45738        -0.54909
C         10.94562        10.66330        -0.50785
C         10.98004        12.06492        -0.58918
C         12.18889         9.90640        -0.30239
C         12.24734        12.77661        -0.68053
C         11.00056        14.92534        -0.83488
C         11.02493        16.36427        -0.73182
C         12.24841        14.22429        -0.84458
C         12.27008        17.07382        -0.82667
C         11.15112        19.19126        -0.28552
C         12.28858        18.53781        -0.72410
C         13.49227         2.00834        -0.79180
C         13.49092         3.42570        -0.72838
C         14.73968         1.32045        -0.79579
C         14.74795         4.13021        -0.47339
C         13.44789         6.36268        -0.62120
C         13.44796         7.77556        -0.57742
C         14.73481         5.64715        -0.45387
C         14.71589         8.49485        -0.64667
C         13.50168        10.65577        -0.33813
C         13.45194        12.10024        -0.61896
C         14.72929         9.88745        -0.62197
C         14.75575        12.84297        -0.52938
C         13.44912        14.93921        -1.03908
C         13.42840        16.36787        -1.13401
C         14.72443        14.24674        -1.09256
C         14.62895        17.10978        -1.56682
C         13.51370        19.23900        -0.99023
C         14.69567        18.57383        -1.34626
C         15.98407         2.00444        -0.84759
C         16.00803         3.43581        -0.75918
C         17.21596         1.31562        -0.93579
C         17.20411         4.16643        -0.90896
C         15.98589         6.34759        -0.79260
C         15.94847         7.76234        -0.87395
C         17.18745         5.61391        -0.96862
C         17.16793         8.47203        -1.08680
C         15.93881        10.62635        -0.87500
C         15.93038        12.00805        -0.95824
C         17.17694         9.89525        -1.06413
C         17.17479        12.70272        -1.32826
C         15.88534        14.90378        -1.40973
C         15.91131        16.34298        -1.75090
C         17.16152        14.16665        -1.57541
C         17.20179        17.07639        -1.67784
C         15.93299        19.22491        -1.51724
C         17.17753        18.53824        -1.70574
C         18.44386         2.01675        -1.00468
C         18.43961         3.45706        -1.05487
C         19.68047         1.33189        -1.03327
C         19.65867         4.16176        -1.26140
C         18.40697         6.30409        -1.27450
C         18.38919         7.75156        -1.31026
C         19.61449         5.58080        -1.42681
C         19.58848         8.47695        -1.45058
C         18.40448        10.59639        -1.06405
C         18.44864        12.03859        -1.00131
C         19.61656         9.87624        -1.21137
C         19.60983        12.73285        -0.69103
C         18.45757        14.91509        -1.48287
C         18.38227        16.39582        -1.51226
C         19.69853        14.23079        -0.91876
C         19.68912        17.06859        -1.65431
C         18.37852        19.25022        -1.75516
C         19.68369        18.60789        -1.87023
C         20.91059         2.02180        -1.15298
C         20.90394         3.44920        -1.33582
C         22.14334         1.32341        -1.06709
C         22.15055         4.12805        -1.52743
C         20.85047         6.27214        -1.83136
C         20.82662         7.79980        -1.86130
C         22.15764         5.57937        -1.68813
C         22.10889         8.56285        -1.75581
C         20.84393        10.57504        -1.01022
C         20.80483        11.92329        -0.52491
C         22.08549         9.90316        -1.14388
C         21.94872        12.38748         0.12682
C         20.78452        15.16468        -0.42606
C         20.83191        16.46969        -0.93281
C         21.91850        14.68601         0.31253
C         21.97938        17.34633        -0.66577
C         20.94963        19.34209        -1.68061
C         22.11533        18.67993        -1.31265
C         23.37800         1.99584        -1.16665
C         23.35803         3.40073        -1.46616
C         24.62748         1.32268        -0.99525
C         24.65094         4.07073        -1.62730
C         23.33395         6.29510        -1.63452
C         23.40822         7.77837        -1.64892
C         24.62896         5.59282        -1.65187
C         24.57729         8.46725        -1.08051
C         23.27932        10.51693        -0.73108
C         23.20656        11.74900        -0.00388
C         24.54477         9.82578        -0.76034
C         24.40197        12.34602         0.45316
C         23.17330        15.29203         0.26940
C         23.25933        16.68412        -0.15703
C         24.40618        14.61740         0.55119
C         24.56671        17.22129        -0.52557
C         23.40719        19.27668        -1.32135
C         24.60812        18.58477        -0.98796
C         25.86839         2.00402        -0.97309
C         25.89183         3.40782        -1.20206
C         27.11821         1.33175        -0.75171
C         27.11094         4.15470        -1.12041
C         25.81242         6.24699        -1.04315
C         25.78517         7.71541        -0.74960
C         27.09756         5.55391        -1.11763
C         27.05432         8.44430        -0.56654
C         25.74006        10.50604        -0.32535
C         25.67968        11.85983         0.11471
C         26.99805         9.84027        -0.30974
C         26.87522        12.66728         0.19082
C         25.63007        15.03911         0.05152
C         25.71756        16.41647        -0.42446
C         26.82106        14.13814        -0.08531
C         27.00452        17.04593        -0.55712
C         25.88007        19.18827        -1.10526
C         27.06115        18.46535        -0.81187
C         28.33307         2.02000        -0.70128
C         28.35823         3.46209        -0.84751
C         29.58504         1.33149        -0.53185
C         29.53650         4.19350        -0.63991
C         28.35266         6.37180        -1.17992
C         28.27573         7.76990        -0.59977
C         29.55875         5.61562        -0.70936
C         29.46378         8.46227        -0.24114
C         28.18288        10.55812         0.02924
C         28.12280        12.00639         0.15266
C         29.39469         9.82931         0.12697
C         29.35790        12.74557         0.25866
C         28.17774        14.85837        -0.24175
C         28.19291        16.33343        -0.28066
C         29.40269        14.13333         0.15043
C         29.42472        17.00557        -0.10595
C         28.31491        19.11576        -0.74250
C         29.47780        18.43597        -0.33576
C         30.78079         2.01237        -0.34575
C         30.74668         3.49646        -0.05856
C         32.03452         1.35509        -0.24764
C         32.03847         4.18791        -0.40930
C         30.73453         6.35026        -0.51327
C         30.74453         7.76231        -0.27732
C         32.00543         5.62216        -0.64701
C         31.95039         8.43685         0.02756
C         30.59061        10.50936         0.67205
C         30.57311        12.01689         0.68063
C         31.90188         9.73186         0.81268
C         31.85615        12.74668         0.72537
C         30.60893        14.87746         0.43599
C         30.58876        16.28793         0.30731
C         31.83863        14.15574         0.72109
C         31.76074        17.08963         0.71188
C         30.69995        19.13861        -0.19118
C         31.85773        18.50906         0.29877
C         33.24909         2.05784        -0.19465
C         33.24925         3.51579        -0.36847
C         34.47211         1.38760         0.03800
C         34.49065         4.23719        -0.36841
C         33.30873         6.41156        -0.51730
C         33.21888         7.80871        -0.06820
C         34.53407         5.63613        -0.27478
C         34.42860         8.48396         0.24982
C         33.14681        10.59186         0.66606
C         33.07241        11.98610         0.81016
C         34.41114         9.90041         0.55110
C         34.30780        12.73771         1.08794
C         33.08608        14.88073         0.91101
C         33.05934        16.35832         1.04325
C         34.28176        14.20699         1.02640
C         34.30342        17.12306         0.94477
C         33.07275        19.19194         0.42640
C         34.29736        18.52346         0.73722
C         35.70944         2.04723         0.02205
C         35.77126         3.46320        -0.51333
C         36.89604         1.38153         0.36211
C         36.97900         4.23250        -0.04778
C         35.73802         6.36276        -0.02212
C         35.68692         7.77888         0.17275
C         36.98310         5.61435         0.07106
C         36.90552         8.52404         0.27796
C         35.64377        10.59755         0.60241
C         35.64865        12.02086         0.99630
C         36.88182         9.91756         0.41053
C         36.85033        12.86413         0.77065
C         35.56372        14.91830         1.25965
C         35.56558        16.43228         1.17061
C         36.82961        14.21377         0.92924
C         36.83165        17.15774         0.95652
C         35.52462        19.24360         0.79512
C         36.78027        18.59517         0.91637
C         38.15760         2.02210         0.36060
C         38.22485         3.46046         0.03380
C         39.33221         1.36144         0.75341
C         39.50026         4.21331         0.43886
C         38.20821         6.32113         0.40843
C         38.20171         7.80135         0.27074
C         39.37782         5.65426         0.70295
C         39.46623         8.55488         0.57262
C         38.15714        10.69419         0.35511
C         38.13551        12.18923         0.46634
C         39.42766        10.02790         0.70730
C         39.37591        12.90602         0.85627
C         38.06331        15.01062         0.52798
C         38.03847        16.47487         0.90320
C         39.34577        14.31116         0.91596
C         39.26617        17.19733         0.97907
C         37.99619        19.30894         0.91930
C         39.23172        18.63153         1.00023
C         40.52329         2.05186         1.05839
C         40.60363         3.44206         1.02868
C         41.74042         4.17232         1.52509
C         40.53749         6.33576         1.33388
C         40.59049         7.84342         1.26805
C         41.74280         5.52933         1.61752
C         41.83202         8.63293         1.41383
C         40.57469        10.72459         1.02543
C         40.57242        12.18801         1.09480
C         41.80307         9.97856         1.29345
C         41.72925        12.93339         1.41060
C         40.52868        15.04439         1.15223
C         40.51675        16.51236         1.09117
C         41.70904        14.32073         1.42826
C         41.69165        17.26397         1.16512
C         40.46031        19.35167         1.06890
C         41.66008        18.67374         1.14146
O          8.85110         5.96963        -1.99398
O         35.01590        12.25601         2.29549
O         12.87914        10.28659         0.95481
O         20.70102         7.02549        -3.08652
O          3.06152        11.42106        -0.47608
O         19.87233        17.62881        -2.97364
O         22.97116         8.41689        -2.91230
O         11.54508         3.75795        -2.14720
O          8.51246        15.77242        -2.08148
O         30.30491        11.22947         1.92453
O         27.46652        14.32384        -1.40275
O         40.13944         7.17719         2.49922
O         35.59059        15.70145         2.48851
O          3.77914        16.92697        -0.77994
O         39.22881         3.84157        -0.95641
O         25.52240         6.71076         0.34518
O         19.50441        14.43107        -2.36932
O         17.12282        13.24798        -2.72185
O         32.15387        16.84584         2.10019
O         24.86074         4.85405        -2.87415
O         39.15739         8.16927        -0.81072
O          4.45792         4.68389        -0.50678
O         15.08849        16.70642        -2.90821
O         38.22422        11.55630        -0.85939
O         14.77951         4.89350         0.81064
O         22.40498        17.49875         0.73426
O         21.81161        13.46955         0.99559
O         32.73779         6.10433        -1.83335
O          2.92759         6.98747        -0.02776
O         24.31962        13.44275         1.30685
O         28.57011         6.61024        -2.62941
H         28.73302         5.74055        -3.05391
O         14.96542        13.05769         0.92808
H         14.66484        12.24430         1.39053
O         10.34490        18.05660         1.64498
H         11.24274        17.66072         1.62369
O         38.03547        15.02811        -0.94297
H         38.24564        14.12153        -1.25807
O          6.89327        17.76011        -1.97325
H          7.08371        17.01966        -2.59493
O          3.87027         5.97169         3.35101
H          3.45355         5.60242         4.15838
O         31.95367         9.26963         2.20145
H         31.56337         9.99505         2.74463
O         35.96911         3.29127        -1.96479
H         36.06324         4.18397        -2.36072
O          5.52684        10.65811        -1.80745
H          4.58825        10.96339        -1.82392
O         30.61612         3.61874         1.40384
H         29.78481         3.16564         1.66071
H          0.99900         1.61556         3.39353
H          0.92764         4.07771         3.21648
H          2.98632         0.34188         2.58760
H          0.85050         6.02215         3.04520
H          0.72884         8.40510         2.71551
H          0.78000        10.34542         2.68205
H          0.82119        12.75428         2.59537
H          1.00248        14.63194         2.80237
H          1.03995        17.08239         2.78409
H          1.91940        19.22229         1.84573
H          5.24860         0.33663         1.59308
H          3.88934        20.44251         1.02530
H          7.57555         0.31968         0.84062
H          6.34044        20.31640         0.87501
H          9.86799         0.26631         0.14965
H          8.73646        20.13033         0.86538
H         12.28903         0.21103        -0.52343
H         11.16107        20.28276        -0.14667
H         14.73781         0.22079        -0.80600
H         13.53125        20.33076        -0.85200
H         17.22174         0.21597        -0.95077
H         15.96256        20.32248        -1.43671
H         19.68806         0.23546        -0.94449
H         18.35672        20.33918        -1.59574
H         22.12995         0.23903        -0.88252
H         20.98679        20.40469        -1.96504
H         24.61546         0.23614        -0.82290
H         23.49700        20.30639        -1.69974
H         27.11427         0.23924        -0.62198
H         25.95620        20.25037        -1.38168
H         29.59222         0.23255        -0.60027
H         28.37017        20.19619        -0.94224
H         32.05703         0.25406        -0.23626
H         30.73626        20.20735        -0.44823
H         34.44717         0.31127         0.27015
H         33.10645        20.26571         0.19151
H         36.83997         0.32913         0.68211
H         35.49870        20.33931         0.70394
H         39.29483         0.27531         0.92235
H         37.98220        20.40769         0.87023
H         41.38278         1.47862         1.43618
H         42.62972         3.60182         1.83240
H         42.62429         6.04721         2.02034
H         42.77275         8.11897         1.65677
H         42.74019        10.53664         1.42034
H         42.67747        12.42433         1.62626
H         42.64191        14.85453         1.65377
H         42.66732        16.76552         1.24161
H         40.43806        20.45076         1.06936
H         42.60552        19.23137         1.19404
