         320
 CSIRO Nanostructure Databank - Neutral Graphene Oxide Data Set
C         30.78613        31.29194         1.14187
C         30.90917        32.57806         1.29055
C         30.95704        35.72889         2.05738
C         31.09390        36.87199         2.48801
C         30.78132        40.02929         2.44048
C         30.48552        41.20986         2.20019
C         32.71846        28.76658        -0.82217
C         31.82856        29.27701        -0.10601
C         32.65994        31.52457        -0.42002
C         31.60519        30.63137         0.26111
C         32.71887        32.99911        -0.08675
C         31.72065        33.57407         0.88515
C         32.95111        35.80034         0.73122
C         31.51560        35.06399         0.84899
C         32.72872        37.35293         0.80331
C         32.23845        37.80983         2.24222
C         33.04551        40.09505         1.81396
C         31.98548        39.28336         2.17233
C         32.96228        41.58428         1.99747
C         31.36975        42.39103         2.20659
C         32.54810        44.07685         0.93904
C         31.49606        43.36123         1.06299
C         35.54900        27.36775        -1.34021
C         35.14989        28.73906        -1.74090
C         34.12015        29.34248        -0.79162
C         35.21225        31.64433        -0.64772
C         33.91960        30.87942        -1.07452
C         35.09486        33.13670        -0.91922
C         33.89196        33.81134        -0.44898
C         35.11745        36.07840        -0.81011
C         33.72216        35.32118        -0.53012
C         35.12369        37.51663        -0.27824
C         33.96568        38.16329         0.42623
C         35.22508        40.28516         0.63338
C         34.16390        39.52391         1.04212
C         35.42726        41.63674         1.29886
C         34.13080        42.41679         1.59769
C         35.05761        44.68690         0.61981
C         33.91550        43.83473         1.10815
C         35.38412        46.08875         1.13231
C         37.92178        27.38541        -1.79047
C         36.61083        26.75289        -1.35955
C         37.82977        28.84463        -1.17248
C         36.55308        29.58617        -1.60748
C         37.74914        31.77448        -0.87683
C         36.49713        31.04176        -1.25029
C         37.67884        33.12134        -0.64881
C         36.42073        33.88830        -0.85006
C         37.69172        36.04017        -0.83120
C         36.39055        35.32215        -0.33967
C         37.73826        37.51866        -0.43381
C         36.45153        38.24018        -0.17375
C         37.66840        40.45965        -0.19449
C         36.30429        39.75371        -0.33920
C         37.72292        41.79446         0.48035
C         36.38375        42.50078         0.47812
C         37.70631        44.63992         0.89802
C         36.36511        43.93977         1.03978
C         37.79985        46.13112         0.65502
C         36.46012        46.67379         0.94558
C         40.59379        24.69334        -1.88958
C         39.57802        25.39027        -1.94977
C         40.33800        27.38456        -0.78112
C         39.14626        26.65349        -1.33868
C         40.22516        28.87212        -0.58202
C         39.20306        29.61200        -1.42812
C         40.15330        31.68000        -0.07202
C         39.13943        31.16564        -1.10006
C         40.09738        33.12636         0.23143
C         38.85836        33.88348        -0.12648
C         40.17261        36.00583        -0.28831
C         38.94712        35.34945        -0.32975
C         40.34680        37.46086        -0.73688
C         38.98411        38.26698        -0.95227
C         40.12908        40.31871         0.36987
C         38.96626        39.74169        -0.45127
C         40.19196        41.90366         0.24402
C         38.87404        42.44166         0.81234
C         40.73902        44.87849         0.69152
C         38.77938        43.85263         1.18877
C         40.57538        46.33954         0.44133
C         39.07733        46.86002         0.29721
C         40.33742        48.84216        -0.31770
C         39.27848        48.33990         0.14521
C         43.19399        24.84611        -1.37042
C         41.76206        25.18977        -1.07210
C         42.93543        27.47864        -0.63086
C         41.72095        26.79343        -1.24542
C         43.11266        28.81817        -0.83076
C         41.01620        29.48435         0.36710
C         42.55995        31.63660         0.45935
C         41.27303        30.95671         0.31749
C         42.65205        33.04842         0.25469
C         41.39934        33.87648         0.53312
C         42.61052        36.01113         0.09387
C         41.39728        35.30038        -0.02179
C         42.67315        37.41750         0.24509
C         41.47103        38.19233         0.01736
C         42.61980        40.27898         0.85581
C         41.43970        39.55997         0.21791
C         42.69775        41.69849         0.17349
C         41.54690        42.57382         0.72294
C         42.67266        44.47119        -0.81090
C         41.61663        44.00331         0.16878
C         42.83250        46.02906        -0.67973
C         41.45612        46.75790        -0.76442
C         42.81226        48.69470        -1.26735
C         41.56324        48.33564        -0.76704
C         44.12678        25.43616        -0.81446
C         45.39752        27.45554         0.01416
C         44.09874        26.69197         0.04541
C         45.47690        29.00256        -0.18453
C         44.09689        29.53153         0.03609
C         45.11661        31.66580         0.72654
C         43.84902        30.91734         0.66541
C         45.10962        32.92101         0.12257
C         43.88328        33.71563         0.03585
C         45.04081        36.11854        -0.07955
C         43.88803        35.23426         0.38034
C         45.20768        37.36666         0.46836
C         43.90638        38.02044         0.98843
C         45.20580        40.31373         0.54918
C         43.95264        39.55081         0.85078
C         45.18919        41.70123         0.02028
C         44.03930        42.43382         0.02034
C         45.15441        44.38698        -1.06649
C         44.01922        43.78029        -0.60333
C         45.21330        45.86305        -1.52864
C         43.85429        46.52956        -1.76969
C         43.88042        48.05956        -1.50306
C         47.84460        27.63617         0.02037
C         46.67710        27.02230         0.03361
C         47.76185        28.90936         0.76275
C         46.58509        29.61097         0.66525
C         47.66222        31.75331         1.52349
C         46.33974        30.95105         1.36349
C         47.69223        33.09115         1.81637
C         46.53076        33.88202         2.30269
C         47.82189        36.01688         1.57400
C         46.68574        35.40091         2.35369
C         47.73736        37.53670         1.33370
C         46.57726        38.07164         0.39002
C         47.77341        40.31651         0.21636
C         46.51763        39.58962         0.56443
C         47.69506        41.52489        -0.64190
C         46.32686        42.13469        -0.88897
C         47.49085        43.95490        -2.12162
C         46.49331        43.66380        -0.94635
C         47.05542        45.07248        -2.78629
C         46.06362        45.87089        -2.84050
C         50.15345        28.91141         1.86438
C         49.05046        29.58657         1.08886
C         50.25687        31.64167         1.75689
C         48.92157        30.93259         1.84876
C         50.27062        33.08370         1.96628
C         48.98029        33.84603         1.95937
C         50.30551        35.79937         1.00030
C         48.97743        35.29249         1.54618
C         50.34974        37.31689         0.78994
C         49.09321        38.14886         0.84612
C         49.78895        39.72871        -1.11312
C         49.10930        39.58146         0.22164
C         49.92708        41.00451        -1.61624
C         48.74935        41.87015        -1.45185
C         49.88190        43.37575        -2.96879
C         48.51290        42.94121        -2.53795
C         51.12891        29.46019         2.39275
C         52.33605        31.76774         2.94808
C         51.58578        30.84105         2.00726
C         52.45198        33.00113         2.85318
C         51.62757        33.79047         1.84143
C         52.74542        36.04173         1.49693
C         51.47843        35.30421         1.98113
C         52.67946        37.07549         0.81536
C         51.65517        37.76922         0.10235
C         52.46585        39.42501        -1.73565
C         51.65600        38.43315        -1.08570
C         52.21725        40.45382        -2.38721
C         51.29704        41.60735        -2.10153
C         50.86993        42.63299        -3.11140
O         34.12091        38.26737        -1.03156
O         38.37759        40.57479        -1.49617
O         38.27142        46.31929        -0.74322
O         32.02320        32.45936        -1.35330
O         39.09587        33.44750         1.29734
O         47.30612        40.29610         1.59145
O         37.31191        37.80908         0.92603
O         41.02703        37.37854        -2.06953
O         49.60598        33.54410         3.25769
O         39.44988        26.59892         0.08882
O         43.79856        29.68715         1.45095
O         44.70421        40.18932         1.92835
O         50.03134        38.07767         1.97263
O         45.96753        36.06433         3.07949
O         33.77876        42.17039         3.04619
O         45.54313        33.34056         2.79420
O         36.58577        30.57993        -2.64681
O         35.75041        33.65177        -2.11453
O         50.34899        38.57473        -1.64972
O         39.90220        44.47592         1.73741
O         47.12549        44.08624         0.26407
H         47.00840        45.06115         0.34086
O         41.63095        42.74501         2.13260
H         42.05877        41.96646         2.55934
O         43.67468        37.80174         2.39364
H         44.00709        36.89367         2.61624
O         40.39402        36.33375        -2.87224
H         40.24154        36.81028        -3.72525
O         49.61973        29.88549        -0.19078
H         49.65351        29.04817        -0.70366
O         41.45924        34.05804         1.98779
H         40.52188        34.06997         2.30545
O         45.83033        35.69050        -1.10288
H         46.52251        36.38318        -1.29005
O         45.94479        30.63053         2.71312
H         45.67553        31.47981         3.14120
O         45.79865        29.25206        -1.57014
H         46.65885        28.81163        -1.75176
O         42.50246        41.38679        -1.24376
H         41.54622        41.47359        -1.49039
O         42.23556        44.15298        -2.15413
H         42.28205        43.17032        -2.24029
O         47.94993        42.24390        -3.69266
H         47.89329        42.88496        -4.43363
O         35.20379        36.20850        -2.23684
H         34.98638        37.13478        -2.48004
O         37.69833        35.91624        -2.25908
H         38.60363        36.16100        -2.57980
O         52.33751        30.75499         0.82698
H         53.11255        30.17750         0.97890
O         33.69495        35.35606         1.88013
H         34.66708        35.31746         1.67879
O         35.96368        42.47526        -0.90682
H         35.68512        43.37916        -1.20373
O         35.88055        39.93884        -1.70227
H         35.76081        40.91088        -1.83181
O         43.45667        46.28861         0.57804
H         42.78715        46.62152         1.22751
O         40.82024        46.41305        -1.99369
H         40.94379        45.44617        -2.17301
O         33.77361        31.04526        -2.48721
H         33.08153        31.74099        -2.62868
O         52.19357        33.50238         0.56495
H         53.06013        33.96312         0.51003
O         36.34651        35.29027         1.09927
H         37.12188        34.79436         1.44438
O         31.37948        43.01579         3.42738
H         32.29493        43.33286         3.61201
O         48.69870        30.62373         3.24830
H         48.86462        31.44344         3.76610
O         50.44767        35.24296        -0.31879
H         51.03162        34.44057        -0.29924
O         41.10260        46.99062         1.62568
H         40.78158        46.49215         2.40990
O         37.93683        27.42811        -3.19386
H         37.11053        27.85031        -3.51458
O         36.20636        43.89311         2.48042
H         36.63508        43.07506         2.83219
O         47.49034        38.07263         2.62892
H         48.32710        38.02196         3.14099
O         43.78722        26.30403         1.36410
H         42.96559        25.75815         1.32958
O         42.28576        40.30559         2.28427
H         42.81339        39.58912         2.71933
O         41.45936        28.73058         1.39100
H         42.20367        29.16485         1.87668
O         31.69149        37.73159        -0.09843
H         31.94879        37.43431        -0.99970
O         39.64085        31.86689        -2.27198
H         39.66554        31.19726        -3.00488
O         51.15206        35.68817         3.27940
H         51.63285        35.11820         3.91675
O         43.97026        35.20159         1.83312
H         43.14782        34.75796         2.16778
O         37.66646        28.71277         0.25087
H         38.26749        27.99085         0.56920
O         34.62189        29.15355         0.53118
H         35.00137        28.24695         0.59070
O         40.13973        42.34927        -1.14100
H         39.31382        41.98645        -1.55770
O         49.94669        40.39051         1.08528
H         49.46862        40.48744         1.93894
O         35.36446        31.60866         0.78440
H         35.34295        30.66447         1.08274
O         42.50263        29.52354        -1.83121
H         42.73816        30.47103        -1.77757
O         51.81089        42.28322        -0.97442
H         52.67305        42.68716        -1.20060
O         39.53522        29.46675        -2.82039
H         40.23260        28.77902        -2.92247
O         30.66716        35.32064        -0.25265
H         31.09896        34.99324        -1.07324
O         39.70195        40.05469         1.73252
H         40.49566        40.15056         2.31752
O         41.51948        24.87733         0.27578
H         41.32256        23.92196         0.36102
O         33.26827        37.61634         3.19327
H         33.47328        36.64957         3.21423
O         43.41934        46.29230        -3.06630
H         42.47917        46.57217        -3.15316
O         45.83189        41.63029        -2.16002
H         46.51035        41.77404        -2.87049
O         32.88369        35.60351        -1.67015
H         33.49820        35.60244        -2.44972
O         34.92676        44.84831        -0.80028
H         34.01360        45.15231        -0.99158
O         47.12125        37.91359        -0.97384
H         46.59570        38.47165        -1.58813
O         34.76601        28.71223        -3.08916
H         34.33883        29.57594        -3.30912
O         41.69709        27.08102        -2.65644
H         42.51390        26.71520        -3.05858
O         38.81898        38.32573        -2.38187
H         38.18118        39.05470        -2.57226
O         46.32817        33.35294        -0.27300
H         46.27671        34.16979        -0.82132
O         45.94654        46.56574        -0.55161
H         45.66420        47.51095        -0.57313
O         36.10076        41.33359         2.54654
H         35.38812        41.22999         3.22588
