         252
 CSIRO Nanostructure Databank - Neutral Graphene Oxide Data Set
C         30.69419        31.31093         0.35876
C         30.69463        32.41140        -0.19387
C         30.75948        35.58340        -1.39339
C         30.71155        36.84159        -1.51821
C         30.43707        40.14008        -1.19908
C         30.41535        41.36637        -1.38722
C         32.93053        29.02275         2.38666
C         31.97507        29.41427         1.70325
C         33.05058        31.38266         0.69677
C         31.82296        30.33693         0.53918
C         33.04366        32.78385         0.13319
C         31.81232        33.30998        -0.69976
C         32.35460        35.64210         0.26853
C         31.58942        34.79770        -0.58041
C         32.21995        37.07173         0.18246
C         31.46438        37.78663        -0.77952
C         32.78601        40.17866        -0.71455
C         31.64065        39.23616        -1.26621
C         32.78883        41.53993        -0.90603
C         31.41608        42.33230        -0.83301
C         32.76263        44.28351        -1.36646
C         31.69719        43.67072        -1.46310
C         35.28803        27.72520         1.09346
C         35.30489        28.90989         1.87518
C         34.28012        29.17379         2.82831
C         35.33058        31.86458         1.71360
C         33.91229        31.41206         1.94794
C         35.22220        33.27031         1.39253
C         33.92868        33.75641         0.85406
C         35.33859        36.22042         1.01790
C         33.47982        35.04826         1.00230
C         35.24211        37.42111         0.12177
C         34.08228        38.34576         0.37111
C         35.31529        40.06500        -0.78626
C         34.02512        39.50114        -0.33058
C         35.33343        41.49066        -1.17868
C         34.09630        42.32124        -0.89599
C         35.34038        44.74998        -1.16078
C         34.13338        43.86401        -1.04845
C         35.43311        46.05456        -0.59043
C         37.60300        27.70482         0.55690
C         36.27610        27.20751         0.52218
C         37.68701        29.04269         1.07148
C         36.52496        29.68116         1.62915
C         37.84228        31.84216         1.74318
C         36.52192        31.12822         1.72074
C         37.67571        33.41930         1.78338
C         36.38468        34.03907         1.44444
C         37.63487        35.97662         0.23479
C         36.42003        35.39519         0.93985
C         37.74842        37.46481         0.67824
C         36.54538        38.18995         0.13736
C         37.70006        40.38931         0.26709
C         36.57174        39.48678        -0.23094
C         37.78772        41.69205        -0.53890
C         36.69437        42.08213        -1.23210
C         37.86567        44.84272        -0.84414
C         36.64853        44.28193        -1.36354
C         37.82743        46.18838        -0.35472
C         36.49613        46.67716        -0.34636
C         39.79062        24.86153        -0.43879
C         38.80525        25.61263        -0.19343
C         40.06204        27.53262         0.28367
C         38.74742        26.95493         0.20003
C         40.14953        28.93238         0.60742
C         38.98017        29.71552         0.99347
C         40.38398        31.71625         1.05405
C         39.09801        31.09687         1.31549
C         40.67351        33.10919         1.19935
C         38.83996        34.28304         1.50589
C         40.17444        35.92240         0.01816
C         38.91970        35.30837         0.63124
C         40.21394        37.44292         0.17223
C         39.04579        38.12972         0.26629
C         40.31501        40.36024         0.06941
C         39.04172        39.62536         0.32636
C         40.29885        41.85963        -0.06730
C         38.98504        42.58354        -0.35874
C         40.27154        44.71236        -0.24672
C         39.05715        44.05807        -0.62876
C         40.26813        46.12648         0.00248
C         39.02711        46.82324         0.04667
C         40.14891        48.74562         0.92181
C         39.12186        48.20334         0.42444
C         42.38560        24.71505        -0.54192
C         41.10965        25.32383        -0.33680
C         42.52580        27.36641         0.07780
C         41.23127        26.73327         0.02023
C         42.60084        28.75205         0.20715
C         41.42810        29.54164         0.47782
C         42.72942        31.65405         0.27992
C         41.50769        30.97001         0.57288
C         42.78169        33.04370         0.10091
C         41.63352        33.80263         0.46233
C         42.67347        35.97090        -0.52045
C         41.58201        35.32777         0.40500
C         42.80811        37.41946        -0.11317
C         41.47961        38.11265        -0.34889
C         42.74847        40.29935        -0.21684
C         41.56890        39.62284        -0.21213
C         42.83944        41.78007        -0.57066
C         41.57151        42.57471        -0.24848
C         42.79053        44.62106         0.24426
C         41.52874        43.94813        -0.18254
C         42.77087        46.07896         0.56753
C         41.57762        46.91347         0.10637
C         42.70550        48.70292         1.40007
C         41.46544        48.30792         0.92624
C         43.51622        25.17271        -0.32152
C         45.14140        27.23211        -0.17182
C         43.81418        26.56692         0.01282
C         45.17002        28.73740        -0.39473
C         43.88476        29.45006        -0.10790
C         45.29318        31.60871         0.07493
C         43.98850        30.89029         0.24839
C         45.22615        33.06542        -0.18177
C         44.03229        33.73265        -0.18688
C         45.22397        35.89780        -0.87854
C         43.91487        35.10733        -0.79304
C         45.22436        37.41776        -0.78655
C         43.97521        38.08996        -0.20942
C         45.29396        40.28093        -0.25312
C         44.01416        39.57588         0.19830
C         45.36894        41.76125        -0.27418
C         44.17083        42.45228        -0.18749
C         45.37206        44.69696         0.29560
C         44.11347        43.93733        -0.03002
C         45.25696        46.07194         0.91522
C         44.07993        46.78391         0.86562
C         43.81393        48.09327         1.31551
C         47.38276        27.35862        -0.98818
C         46.39736        26.66734        -0.70812
C         47.69278        28.76004        -0.89528
C         46.48071        29.48918        -0.47102
C         47.72493        31.62452        -0.68467
C         46.51820        30.86285        -0.35003
C         47.69281        32.98732        -0.76133
C         46.54747        33.78138        -0.19082
C         47.83355        35.90255        -0.53131
C         46.53087        35.18978        -0.74708
C         47.78677        37.29886        -0.00091
C         46.39857        38.00239         0.04802
C         48.24868        40.31513        -0.10633
C         46.35161        39.44228        -0.43919
C         48.03373        41.73036         0.21864
C         46.72324        42.47317        -0.08843
C         47.72995        44.37417         1.42708
C         46.75912        44.01728         0.27134
C         47.44705        45.71104         1.82181
C         46.48081        46.44550         1.53207
C         50.14311        28.91516        -1.55053
C         48.87929        29.40214        -1.10417
C         50.12314        31.62821        -1.56998
C         49.05546        30.88614        -0.75953
C         50.01608        32.97556        -1.67374
C         48.78923        33.81001        -1.40792
C         50.33465        35.86553        -0.54851
C         48.98705        35.20168        -0.74147
C         50.39207        37.31422        -0.12531
C         49.09957        38.01116         0.20420
C         50.27415        40.03507         1.20786
C         49.17697        39.48289         0.42867
C         50.18543        41.38425         1.65796
C         48.83740        42.11262         1.48179
C         49.96080        43.93867         2.54276
C         48.81312        43.61698         1.76838
C         51.22499        29.45737        -1.80308
C         52.51046        31.61492        -1.16267
C         51.47609        30.90955        -2.01765
C         52.72807        32.81066        -0.93412
C         51.93069        33.99552        -1.07913
C         52.35001        35.67516         0.74205
C         51.56998        35.01340        -0.25418
C         52.31866        36.79812         1.27060
C         51.69199        37.98372         0.52316
C         52.40029        39.95273         2.05496
C         51.44030        39.22427         1.35102
C         52.36725        41.10732         2.57729
C         51.27250        41.97294         2.39481
C         51.00774        43.32418         2.82731
O         44.84089        44.67933        -1.07889
O         39.99311        33.85041         2.16047
O         39.87676        40.02834         1.46052
O         37.86909        32.63251         2.98231
O         44.29743        29.15939        -1.49979
O         43.52461        34.73688        -2.17510
O         34.23690        35.89333         1.83514
O         33.76478        31.68222        -0.52998
O         48.42982        37.33935         1.33496
O         39.49057        42.42064         1.01883
O         47.47467        39.83684        -1.16436
O         41.33546        37.82858        -1.79787
O         33.37419        31.58671         3.04115
O         51.07007        33.75447        -2.21334
O         47.81933        42.38860        -1.06009
O         45.96170        35.41668        -2.05872
O         44.84157        31.17834         1.42273
O         36.80165        43.13415        -2.14680
O         42.55295        45.09731         1.62622
O         34.18914        43.21113         0.26185
O         50.59055        36.95575        -1.52406
O         44.71656        26.82269         1.13548
O         32.96867        37.85617         1.06416
O         35.25376        40.45253        -2.20950
O         52.54060        38.37487        -0.52378
H         52.42758        37.73879        -1.26684
O         49.56030        30.90718         0.61065
H         49.05543        30.25931         1.14596
O         31.16035        42.53617         0.53293
H         30.34379        43.06551         0.63584
O         51.75622        31.19055        -3.35483
H         51.82627        32.16424        -3.46350
O         39.96714        35.69099        -1.43261
H         40.11295        36.59487        -1.85388
O         34.58544        29.64558         4.03959
H         33.79819        30.04601         4.46713
O         45.34852        37.93507        -2.12740
H         45.52901        37.17518        -2.72933
O         41.91097        47.31299        -1.23566
H         41.16833        47.83717        -1.60324
O         43.94361        39.63647         1.64684
H         44.64684        39.03686         1.99651
O         42.31502        36.13393        -1.97425
H         41.50923        35.58092        -2.17784
O         45.98501        37.93303         1.42996
H         46.80431        37.83293         1.97636
O         47.41713        44.68804        -0.82310
H         46.79876        44.68909        -1.58785
O         32.00925        39.10469        -2.63860
H         31.41719        38.44642        -3.06184
O         32.05163        33.01707        -2.06151
H         32.62190        32.21638        -2.10481
O         48.29102        34.11118        -2.74631
H         48.98525        34.62256        -3.21493
O         31.99048        29.58293        -0.62394
H         31.89799        30.16175        -1.40761
O         41.91292        35.83118         1.71248
H         41.32188        35.38568         2.36290
O         37.34152        40.70568         1.63039
H         38.11444        41.19883         2.00147
O         47.96731        41.53299         2.51210
H         48.39861        41.66388         3.38420
O         34.94424        36.90899        -1.21760
H         35.76576        36.46762        -1.55513
O         42.85312        41.78160        -2.03959
H         43.59949        41.21984        -2.34131
O         37.39677        35.91117        -1.18915
H         38.24924        35.66875        -1.63097
O         46.87755        33.97458         1.22520
H         46.75482        33.11952         1.69173
O         37.70201        37.48001         2.12239
H         37.77739        38.41542         2.41590
