         324
 CSIRO Nanostructure Databank - Neutral Graphene Oxide Data Set
C         30.53879        57.17291         0.08720
C         30.49943        58.54990        -0.21867
C         29.29502        59.28341        -0.20171
C         30.42263        61.28861        -1.00178
C         29.26634        60.62826        -0.58995
C         32.72700        52.93519         0.83378
C         32.89299        54.23195         0.31190
C         31.75155        55.07425         0.37511
C         33.04899        57.18562        -0.03645
C         31.74146        56.44091         0.08579
C         32.90242        58.51033        -0.73447
C         31.71973        59.20499        -0.67632
C         32.86644        61.30094        -1.31770
C         31.66749        60.61484        -1.06041
C         35.26851        48.59192         1.15733
C         35.22467        49.96866         0.92997
C         34.00736        50.71435         1.26644
C         35.41340        52.69683        -0.48174
C         33.63115        51.84793         0.58204
C         35.38052        54.07002        -0.55712
C         34.25699        54.90466         0.03523
C         35.34663        56.97908        -0.94919
C         34.21224        56.33644        -0.51084
C         35.37886        58.42982        -1.16562
C         34.06963        59.11227        -1.46728
C         35.32202        61.29902        -1.40230
C         34.10935        60.62263        -1.36028
C         37.76199        44.30730         0.84962
C         37.74331        45.68990         1.00708
C         36.50512        46.41785         1.00486
C         37.73781        48.52917         1.23390
C         36.46340        47.80084         1.08803
C         37.72295        50.01519         0.97517
C         36.45942        50.67448         0.54371
C         37.85784        52.63572        -0.13751
C         36.55412        51.92641        -0.05280
C         37.93301        54.02991        -0.66002
C         36.64054        54.75517        -0.93319
C         37.92319        56.98202        -1.23371
C         36.61435        56.22151        -1.19932
C         37.86636        58.47717        -1.23682
C         36.54970        59.15086        -1.23833
C         37.77867        61.31108        -1.22562
C         36.57474        60.60991        -1.31887
C         40.23237        40.14590         0.01259
C         40.23643        41.49044         0.37095
C         39.00391        42.22374         0.49183
C         40.24318        44.23351         1.31794
C         38.97984        43.56077         0.82684
C         40.24759        45.72119         1.07511
C         39.01800        46.41184         1.06800
C         40.24426        48.53569         1.01800
C         39.02293        47.82132         1.09406
C         40.22943        49.99168         0.93492
C         39.03968        50.64325         0.74165
C         40.19079        52.92408         0.98678
C         38.98195        52.11146         0.68472
C         40.15234        54.43500         0.71130
C         39.17873        54.84083        -0.40112
C         40.25960        57.13642        -0.12786
C         39.16621        56.29597        -0.71896
C         40.26653        58.59467        -0.41002
C         39.05984        59.26905        -0.91609
C         40.25984        61.40110        -0.71843
C         39.04349        60.66519        -0.97056
C         42.64124        36.01108        -1.25046
C         42.64847        37.35754        -0.82977
C         41.43948        38.07503        -0.59521
C         42.69864        40.11209        -0.04922
C         41.44410        39.41909        -0.20029
C         42.71763        41.49940         0.26886
C         41.49225        42.19662         0.52388
C         42.73144        44.28349         0.92092
C         41.51507        43.56307         0.86591
C         42.74448        45.71599         1.04636
C         41.47163        46.42827         1.01905
C         42.74547        48.58330         0.64831
C         41.46573        47.83678         0.94420
C         42.68326        50.02835         1.09525
C         41.48906        50.73513         1.06241
C         42.66051        52.92017         1.08754
C         41.47894        52.18821         1.10221
C         42.66759        54.34548         0.83776
C         41.51947        55.05893         0.51678
C         42.72993        57.18998         0.15448
C         41.55349        56.44933         0.15381
C         42.78490        58.59350        -0.18603
C         41.56579        59.27504        -0.74848
C         42.72689        61.44844        -0.36777
C         41.50549        60.77337        -0.54903
C         45.05496        33.29921        -2.15780
C         43.85432        33.95837        -1.93578
C         45.09727        35.96736        -1.24449
C         43.84338        35.31123        -1.48462
C         45.10823        37.29931        -0.79079
C         43.90750        38.01617        -0.61613
C         45.14058        40.12581        -0.18025
C         43.91967        39.41538        -0.24715
C         45.17686        41.50853         0.10732
C         43.95527        42.19733         0.35903
C         45.20211        44.25539         0.86650
C         43.97636        43.58566         0.70989
C         45.21665        45.63955         1.46871
C         43.95616        46.42660         1.14940
C         45.19559        48.56819         1.24751
C         43.99670        47.85076         1.10184
C         45.22584        49.99596         1.23594
C         43.94000        50.70604         1.40942
C         45.21487        52.93082         1.14469
C         43.93368        52.24816         1.39479
C         45.21557        54.33559         0.96751
C         43.93873        55.07159         1.00881
C         45.24686        57.18121         0.36762
C         43.95515        56.56434         0.67865
C         45.27137        58.54656        -0.28240
C         43.96963        59.29851        -0.17820
C         45.19273        61.44005        -0.16027
C         43.97475        60.75251        -0.26431
C         46.28626        33.94224        -1.95389
C         47.58208        35.95535        -1.34573
C         46.34010        35.27466        -1.49785
C         47.65934        37.28356        -0.88968
C         46.40405        37.92464        -0.33872
C         47.68483        40.14980        -0.44736
C         46.38519        39.42027        -0.53416
C         47.66880        41.53962         0.04215
C         46.43019        42.21333         0.21307
C         47.67472        44.28036         0.71701
C         46.42909        43.58643         0.60239
C         47.66949        45.72334         0.94629
C         46.49360        46.39102         1.19394
C         47.69030        48.56412         0.92730
C         46.49329        47.85480         1.59093
C         47.70142        50.06532         1.12173
C         46.43349        50.74370         1.20518
C         47.65770        52.90934         1.03470
C         46.42405        52.19174         1.14851
C         47.65732        54.33106         0.89745
C         46.42231        55.04930         0.81930
C         47.68775        57.18563         0.28365
C         46.40988        56.47098         0.52197
C         47.68299        58.66545         0.32791
C         46.48434        59.34594         0.10483
C         47.66988        61.46900         0.16240
C         46.45141        60.77222         0.04000
C         48.87076        37.97644        -0.77659
C         50.11102        39.99003        -0.05708
C         48.94285        39.36133        -0.38960
C         50.19499        41.42121         0.40482
C         48.87788        42.17881         0.35194
C         50.20296        44.25284         0.87204
C         48.88077        43.56721         0.61919
C         50.12510        45.74972         0.71001
C         48.95402        46.41828         0.88590
C         50.20103        48.62186         0.75235
C         49.00943        47.87487         1.28740
C         50.24965        50.09712         1.03908
C         48.88958        50.76871         1.01826
C         50.12349        52.91932         0.94256
C         48.89779        52.20339         0.99245
C         50.09316        54.32700         1.05984
C         48.89909        55.02683         0.92670
C         50.14296        57.25461         0.98572
C         48.96770        56.46859         0.60969
C         50.13614        58.65863         0.78271
C         48.90888        59.36059         0.47604
C         50.13853        61.49020         0.40577
C         48.90392        60.79043         0.35874
C         51.24542        42.21961        -0.41835
C         52.49085        44.36095        -0.09872
C         51.35264        43.64386         0.08656
C         52.60042        45.76957         0.22867
C         51.44184        46.47419         0.89948
C         52.56787        48.64198         0.14487
C         51.37538        47.94643         0.52474
C         52.53252        50.09605        -0.13303
C         51.21696        50.84273         0.10701
C         52.55186        52.97680         0.46155
C         51.39046        52.26964         0.60152
C         52.55463        54.49927         0.59249
C         51.37919        54.99689         1.44112
C         52.63585        57.27732         1.52329
C         51.32750        56.52826         1.48651
C         52.57398        58.76138         1.33901
C         51.33358        59.41848         0.91368
C         52.61367        61.52276         0.56186
C         51.36002        60.81971         0.64293
C         53.71585        46.47568        -0.13039
C         54.95362        48.60946        -0.40228
C         53.75686        47.92248        -0.09536
C         55.09466        50.00544        -0.35694
C         53.84863        50.84975        -0.27979
C         55.00341        53.02415         0.62885
C         53.83723        52.39405        -0.11822
C         55.04491        54.40028         0.91849
C         53.83884        55.16238         1.00780
C         55.15540        57.26091         1.14342
C         53.91948        56.55628         1.26727
C         55.12679        58.71056         1.17671
C         53.86630        59.49629         1.21126
C         55.09512        61.56209         0.56074
C         53.85308        60.90215         0.73480
C         56.35430        50.54547        -0.72012
C         57.61060        52.73166        -0.99340
C         56.74339        51.84787        -0.36377
C         57.78951        54.07735        -0.52945
C         56.29239        55.11173         0.88889
C         57.60070        57.09032         0.23044
C         56.37323        56.50577         0.81742
C         57.94706        58.41296         0.54381
C         56.25568        59.50970         1.23664
C         57.56631        61.43711         0.39305
C         56.31724        60.87973         0.77798
C         58.26413        55.11906        -1.29025
C         59.34438        57.27230        -1.49611
C         58.38755        56.48885        -0.82823
C         59.53205        58.65751        -1.25510
C         58.73523        59.27473        -0.24502
C         59.68079        61.44487        -0.82294
C         58.68699        60.71594        -0.12048
C         60.47384        59.44898        -1.96468
C         60.57080        60.81206        -1.69804
O         39.96048        58.09287         0.94821
O         53.05385        50.46310        -1.45522
O         48.51286        56.67523        -0.81157
O         53.19384        59.40983         2.52416
O         38.11281        57.67906        -2.49387
O         39.19089        52.64311         2.04003
O         38.23302        52.90000        -1.54080
O         46.99654        39.94767        -1.74828
O         43.86096        56.09031         2.06438
O         43.89962        51.49447         2.64578
O         56.14004        52.32952         0.84116
O         34.23672        51.99063        -0.68018
O         57.46460        54.35623         0.81837
O         57.43056        58.95256         1.73604
O         37.68244        49.48029         2.35007
O         51.55530        46.44587         2.34273
O         36.52805        55.27706        -2.31695
O         52.67442        55.07734        -0.70049
O         39.77912        55.31898        -1.63159
O         51.89523        56.98388         2.77038
O         40.22581        44.07477         2.78200
H         39.41913        44.52267         3.11503
O         34.76239        55.11569         1.41230
H         34.30812        55.92257         1.76483
O         46.45552        37.74315         1.11438
H         46.45080        36.78017         1.29781
O         50.87072        42.22616        -1.80424
H         49.99878        42.66470        -1.88980
O         33.41286        57.53137         1.37013
H         32.63957        57.99171         1.76366
O         50.54272        50.93637        -1.16642
H         51.23722        51.11290        -1.84304
O         42.86204        48.63224        -0.82439
H         42.01633        48.98262        -1.17739
O         54.02319        52.94654        -1.45170
H         53.53736        53.83347        -1.45785
O         41.67243        59.06742        -2.19685
H         42.54961        59.39908        -2.48544
O         49.26029        47.86324         2.73618
H         50.11742        47.31157         2.82082
O         33.81560        58.82663        -2.89177
H         34.60986        59.10702        -3.39494
O         50.77400        50.23039         2.38725
H         50.30436        49.56283         2.94358
O         50.65594        41.36237         1.77337
H         50.66879        42.28394         2.14749
O         45.40801        58.28511        -1.73154
H         46.28970        57.87617        -1.87617
O         39.59572        55.08673         1.88262
H         39.96039        54.65861         2.68607
O         45.19806        45.45026         2.92855
H         45.54097        46.29296         3.32110
O         46.59781        47.90424         3.04071
H         47.55559        47.77090         3.26987
O         51.65618        54.49687         2.77698
H         51.86609        55.28215         3.34076
O         50.52186        44.04064         2.28867
H         51.05571        44.85501         2.57201
O         47.55761        48.35417        -0.50536
H         46.77901        48.85861        -0.82201
H         29.59546        56.64332         0.29061
H         28.36744        58.78489         0.11432
H         30.37671        62.35125        -1.28044
H         28.31308        61.17494        -0.56286
H         31.79864        52.73158         1.39374
H         30.78715        54.60002         0.62071
H         32.85036        62.39831        -1.40563
H         34.32250        48.07109         1.37055
H         33.45165        50.39249         2.16031
H         35.32637        62.39991        -1.42415
H         36.81470        43.77260         0.67953
H         35.56807        45.84667         0.92250
H         37.75158        62.41048        -1.26744
H         39.27205        39.62675        -0.12582
H         38.06377        41.70752         0.24267
H         40.20560        62.50026        -0.68632
H         41.67969        35.50021        -1.40863
H         40.47850        37.55763        -0.73675
H         42.73386        62.54830        -0.31618
H         45.04575        32.25784        -2.50933
H         42.89879        33.44362        -2.11061
H         45.18798        62.53983        -0.19936
H         47.22327        33.40377        -2.15579
H         48.50584        35.43660        -1.64597
H         47.67377        62.56683         0.08839
H         49.81131        37.44612        -0.99470
H         51.04589        39.40935        -0.01840
H         50.14468        62.57842         0.24497
H         52.24006        41.71332        -0.35290
H         53.34782        43.89199        -0.61074
H         52.58668        62.59116         0.29959
H         54.58655        45.95093        -0.55506
H         55.85659        48.01154        -0.59890
H         55.11133        62.59838         0.19220
H         57.04697        49.91466        -1.29748
H         58.03093        52.45478        -1.96972
H         57.56956        62.52018         0.18415
H         58.63968        54.89632        -2.29978
H         59.95369        56.79413        -2.27731
H         59.70521        62.54027        -0.72784
H         61.12439        58.97931        -2.71562
H         61.31569        61.41760        -2.23357
