         261
 CSIRO Nanostructure Databank - Neutral Graphene Oxide Data Set
C        -11.34300         0.67188        -0.49673
C        -10.17155         1.54274        -0.88821
C         -8.88245         0.71506        -0.98969
C         -7.62155         1.47091        -1.24844
C         -6.27709         0.77233        -1.24493
C         -4.96310         1.50614        -1.35093
C         -3.66031         0.75205        -1.14387
C         -2.38554         1.54290        -0.90394
C         -1.19428         0.80917        -0.35623
C          0.13662         1.48806        -0.52857
C          1.36513         0.68591        -0.28734
C          2.62232         1.32298         0.20391
C          3.87875         0.59882        -0.13853
C          5.07569         1.46111        -0.33384
C          6.30667         0.78944        -0.83276
C          7.63701         1.48542        -0.64925
C          8.80378         0.67248        -0.18539
C         10.12096         1.36784         0.05397
C         11.32176         0.51905        -0.16510
C         -9.90402         2.78554        -0.05119
C         -8.78186         3.52726        -0.24132
C         -7.65174         3.04075        -1.19384
C         -6.27765         3.58431        -0.67648
C         -4.97392         3.01540        -1.21118
C         -3.68136         3.76029        -0.99786
C         -2.33801         3.04832        -1.00508
C         -1.04848         3.80026        -0.63147
C          0.18440         2.99021        -0.33857
C          1.28291         3.52875         0.55075
C          2.56871         2.75340         0.67232
C          3.89069         3.44078         0.96615
C          5.16896         2.73719         0.48376
C          6.45863         3.50770         0.41964
C          7.66973         2.93044        -0.27897
C          8.99165         3.58279        -0.02327
C         10.14035         2.86074        -0.05862
C         -8.68815         4.90572         0.24011
C         -7.54124         5.63446         0.26134
C         -6.25795         4.92878        -0.01853
C         -4.97676         5.71046         0.12785
C         -3.69467         5.16900        -0.44948
C         -2.42451         5.93289        -0.18888
C         -1.08750         5.24868        -0.18198
C          0.07270         5.84491         0.56828
C          1.27862         4.99345         0.93981
C          2.57598         5.69145         1.32110
C          3.91344         4.93055         1.26041
C          5.18752         5.73054         1.00712
C          6.57369         4.98649         0.88071
C          7.55391         5.71212        -0.05142
C          8.96226         5.10460        -0.09161
C         -7.53212         7.07036         0.79236
C         -6.35446         7.88640         0.20344
C         -5.03522         7.16841         0.44524
C         -3.78760         8.00085         0.51828
C         -2.47181         7.32244         0.40482
C         -1.40758         7.87205         1.36251
C         -0.05368         7.09650         1.45308
C          1.22421         7.93296         1.24501
C          2.54984         7.21262         1.25180
C          3.71183         7.87334         0.56476
C          5.04005         7.14647         0.53180
C          6.15898         7.85178        -0.24421
C          7.31794         6.92625        -0.58098
C         -6.27526         9.34572         0.61514
C         -5.16490         9.98420         1.02119
C         -3.88580         9.25673         1.39998
C         -2.57706        10.02524         1.19170
C         -1.38922         9.37689         1.12460
C         -0.11632        10.09119         0.71116
C          1.08607         9.18802         0.44759
C          2.04953         9.56025        -0.43137
C          3.42417         8.99262        -0.39741
C          4.38873         9.12447        -1.51807
C          5.60923         8.56222        -1.47081
C        -11.28913        -0.64003        -0.22379
C        -10.03006        -1.40279         0.12277
C         -8.77677        -0.58680        -0.23285
C         -7.48157        -1.32510        -0.23448
C         -6.31229        -0.73194        -0.97229
C         -5.01680        -1.46994        -0.89436
C         -3.69526        -0.73999        -0.94289
C         -2.54490        -1.40636        -0.23355
C         -1.23415        -0.66752        -0.14055
C          0.00266        -1.45949        -0.56612
C          1.31026        -0.80690        -0.18557
C          2.56814        -1.55829        -0.50768
C          3.78684        -0.74589        -0.83952
C          5.01982        -1.43503        -1.34936
C          6.32542        -0.68788        -1.18996
C          7.58419        -1.46048        -0.97402
C          8.76462        -0.81948        -0.31889
C         10.03595        -1.61616        -0.34697
C         11.28899        -0.82215        -0.36513
C         -9.91961        -2.82355        -0.46468
C         -8.77932        -3.54817        -0.38547
C         -7.53904        -2.84318         0.19655
C         -6.22378        -3.64220        -0.07237
C         -4.99534        -2.95112        -0.59707
C         -3.70098        -3.68957        -0.52382
C         -2.51853        -2.89369        -0.07847
C         -1.22103        -3.62841         0.11102
C          0.05454        -2.89327        -0.07973
C          1.25842        -3.70610        -0.48826
C          2.51593        -3.01063        -0.90203
C          3.81326        -3.78157        -1.11586
C          5.08292        -2.96935        -1.50511
C          6.45576        -3.55987        -1.67418
C          7.72174        -2.97259        -1.14027
C          8.65786        -3.68183        -0.15235
C          9.82408        -3.04035        -0.87935
C         -8.79399        -5.07993        -0.58768
C         -7.52319        -5.88236        -0.24400
C         -6.23298        -5.14556        -0.12339
C         -4.95977        -5.92306        -0.35672
C         -3.67571        -5.18936        -0.32011
C         -2.46369        -5.79722         0.31475
C         -1.17044        -5.13708        -0.14602
C          0.05552        -5.70114         0.54875
C          1.41283        -5.01607         0.26930
C          2.45806        -5.93626        -0.34660
C          3.79823        -5.25530        -0.66937
C          4.97768        -5.83761         0.05973
C          6.12037        -4.97441         0.55226
C          7.41526        -5.66889         0.73500
C          8.62147        -4.88317         0.48104
C         -7.53241        -7.24238        -0.18426
C         -6.29789        -8.08485        -0.02570
C         -4.98748        -7.37261         0.04389
C         -3.80133        -7.97658         0.75352
C         -2.50746        -7.19990         0.83154
C         -1.21025        -7.95932         1.04884
C          0.03738        -7.09524         1.07953
C          1.43597        -7.63477         1.32402
C          2.44693        -7.33074         0.22834
C          3.75161        -8.06536         0.34403
C          4.88683        -7.16485         0.76095
C          6.16356        -7.76462         1.27559
C          7.41866        -6.99887         1.06264
C         -6.27331        -9.51346         0.41405
C         -5.10364       -10.18653         0.52802
C         -3.78138        -9.51254         0.73314
C         -2.49061       -10.09877         0.39535
C         -1.20122        -9.47026         0.73070
C          0.04323       -10.08169         0.14331
C          1.30528       -10.03973         0.56078
C          2.55997       -10.34440         0.88145
C          3.80249        -9.52464         0.68403
C          5.07486       -10.01093         1.29712
C          6.16477        -9.23941         1.48470
O          9.21888        -1.49901         0.87786
O          5.37614         6.84285         1.92409
O         -2.95438         8.25017        -0.64043
O         -4.13874        -5.82141        -1.56065
O          1.69140         5.16143         2.32101
O         -5.97360        -4.42973         1.13417
O          2.07449         7.93378         2.43346
O         -2.89560        -2.02029         1.03746
O         -2.07606         2.22795        -2.16009
O          1.95855        -7.03911        -1.12019
O         -1.88530         7.62152         2.70786
O         -4.31479        -3.46359        -1.81292
O         -2.63773        -6.03644         1.72930
O         -4.93191         6.17925         1.52844
O          7.74093         2.51201        -1.69558
O          4.21600        -3.57036        -2.50647
O         -7.83848        -0.45223         0.88140
O         -0.13639        -5.93267         1.96049
O         -6.18861         3.65572         0.77307
O         -8.35153         0.80656        -2.33424
O          6.14259         2.61501         1.54453
O         -4.35129         3.72374        -2.30154
O          8.92310        -3.01900        -2.07373
O         -1.23818         0.24128         0.99562
O          7.22029         5.01792         2.10193
O         -5.82619        -1.42244        -2.13255
O          0.01828         3.64830        -1.61727
O         -5.64720         1.05045        -2.53334
O         -0.43203        -3.16876         1.24952
O          2.06698        -1.42686         0.86770
O          3.37294         0.56121         1.20756
O         -0.06228         6.07815        -0.84992
O          9.24025         0.99598         1.16843
O          5.18362        -7.08598         2.16986
O         -5.37957        -8.06653        -1.19797
O          1.80082        -8.06415         2.39776
O          1.55600         2.73749         1.73369
O         -3.95645        -8.70783         1.97913
O         -7.78491        -2.87702         1.56218
O          4.79778        -6.02169        -1.38611
O         -3.07279         5.98800        -1.49120
O          4.09927        -0.77016        -2.25604
O          7.26628        -0.90136        -2.28840
O         -3.36666        -0.19395        -2.23299
O          5.95589        -3.78184         0.79409
O          0.97017         1.07199        -1.65678
O         -7.97877         3.52248        -2.43376
O          3.97289         9.24665         0.95172
O          5.43639         1.55976        -1.73190
O          1.56246        -3.52960        -1.88887
O          4.02222         3.94462         2.31290
O         -1.17790        -8.94471         2.09885
O          4.04009        -9.02630        -0.69405
O        -10.09608        -1.57335         1.54610
H         -9.21957        -1.96987         1.82956
O         -1.01579        -5.37940        -1.55267
H         -1.84927        -5.17052        -2.02923
O          2.00516        -4.64450         1.53027
H          1.29213        -4.30541         2.12209
O          6.56543        -4.53948        -2.53475
H          5.65805        -4.76270        -2.88178
O         -0.08636        -1.51289        -2.00383
H          0.13457        -0.62469        -2.37452
O        -10.50318         2.04814        -2.19793
H         -9.69134         2.48427        -2.56767
O         -6.56914         7.87184        -1.23088
H         -5.83724         8.35750        -1.66670
O         -0.08715         6.61162         2.81749
H          0.54673         7.14754         3.35342
O         -7.46562         7.04797         2.21492
H         -6.61627         6.62042         2.47204
O         -0.37828        10.92231        -0.42026
H         -0.91026        10.41052        -1.06435
O          9.65957         5.53290        -1.26213
H          9.28563         5.06456        -2.03674
O         -9.12884        -5.36216        -1.95247
H         -8.41404        -5.03275        -2.53537
O         -4.07330         8.91095         2.77624
H         -3.27614         8.38657         3.07585
O          6.72411         8.86335         0.61664
H          6.65935         8.52498         1.53762
H         12.22783        -1.35624        -0.57719
H         12.29322         1.03316        -0.22752
H         11.11480         3.37181        -0.03215
H          9.51615         5.51918         0.79076
H          8.13248         7.39064        -1.16370
H          6.29269         8.68957        -2.32427
H          4.06371         9.67050        -2.41665
H          1.88174        10.46399        -1.03940
H          0.19735        10.77586         1.54863
H         -2.61510        11.11122         1.00922
H         -5.21492        11.06465         1.23143
H         -7.19021         9.93296         0.43533
H         -8.49314         7.56763         0.50886
H         -9.62968         5.37906         0.56160
H        -10.71346         3.18374         0.58168
H        -12.33092         1.14273        -0.62149
H        -12.23221        -1.18047        -0.04456
H        -10.85008        -3.31201        -0.79823
H         -9.63433        -5.49099         0.02931
H         -8.48823        -7.77740        -0.30274
H         -7.22320       -10.06869         0.42910
H         -5.12450       -11.27465         0.69288
H         -2.48699       -10.96047        -0.28809
H         -0.13378       -10.57068        -0.83569
H          2.71399       -11.27935         1.45371
H          5.13130       -11.08196         1.54536
H          7.08743        -9.69032         1.88013
H          8.37533        -7.53119         1.18114
H          9.57765        -5.31108         0.82213
H         10.74867        -3.63308        -1.05884
