         477
 CSIRO Nanostructure Databank - Neutral Graphene Oxide Data Set
C         27.74620        27.28085         0.58370
C         27.74773        28.74598         0.95281
C         26.51014        29.47842         0.47736
C         27.70278        31.60490         0.66913
C         26.46822        30.81654         0.39414
C         27.76078        33.10764         0.82910
C         26.53034        33.91181         0.76879
C         27.78866        36.00739         0.53269
C         26.56711        35.27289         0.65603
C         27.82663        37.45419         0.53010
C         26.63217        38.24689         0.85509
C         27.98117        40.33292         1.02359
C         26.67289        39.57598         1.07560
C         27.89977        41.82739         0.68780
C         26.69053        42.59636         0.72230
C         27.90401        44.70917         0.45722
C         26.69294        43.97055         0.55061
C         27.97187        46.10259         0.26907
C         30.20846        27.27511         0.55245
C         28.89003        26.59335         0.46049
C         30.18761        28.74654         0.32790
C         29.02225        29.42640         0.47160
C         30.22518        31.66190         0.16752
C         28.95525        30.89080         0.24689
C         30.22091        33.12013         0.43137
C         29.05332        33.81800         0.59135
C         30.22490        35.96727         0.27308
C         29.03353        35.28516         0.46898
C         30.25174        37.39599        -0.16125
C         29.00212        38.13454         0.25778
C         30.28419        40.30024        -0.03295
C         28.91241        39.63079         0.02668
C         30.37020        41.73137         0.39885
C         29.10059        42.48857         0.49530
C         30.46213        44.69441         0.25798
C         29.15690        43.95747         0.56305
C         30.41864        46.12508        -0.10929
C         29.17162        46.77992         0.01941
C         32.61503        24.44662         0.82255
C         31.50242        25.02805         0.33568
C         32.80226        27.19902        -0.03284
C         31.48987        26.51471         0.40868
C         32.73686        28.67322         0.36148
C         31.48521        29.44389        -0.07365
C         32.80247        31.63769         0.47074
C         31.49025        30.89702         0.40245
C         32.81303        33.11118         0.29677
C         31.50386        33.83771         0.07950
C         32.78461        35.99646         0.74869
C         31.49547        35.26299         0.56407
C         32.76503        37.43667         0.36051
C         31.57417        38.09106         0.13377
C         32.86159        40.29231        -0.06889
C         31.57953        39.54827        -0.10438
C         32.88869        41.66729        -0.25464
C         31.67847        42.43500         0.14318
C         32.85273        44.56431        -0.70397
C         31.60536        43.87548        -0.23814
C         32.86476        46.05647        -0.69684
C         31.63330        46.78470        -0.45362
C         32.89654        48.89356        -0.53357
C         31.75006        48.21845        -0.27552
C         35.79467        22.70573         1.26044
C         35.74722        24.11135         1.31752
C         33.76706        25.27218         1.16798
C         35.30841        27.21708         0.76532
C         33.98607        26.51884         0.65721
C         35.33788        28.66747         0.34414
C         34.05791        29.42302         0.47041
C         35.17197        31.56299        -0.28561
C         34.03446        30.87458         0.25460
C         35.21588        33.07283        -0.23023
C         33.98681        33.80206         0.17167
C         35.42497        36.01531         0.69955
C         34.10133        35.17274         0.86599
C         35.24885        37.36147         0.01597
C         34.02956        38.09019         0.05698
C         35.20907        40.11506        -0.72123
C         34.05086        39.48844        -0.21098
C         35.41075        41.60942        -0.44565
C         34.11188        42.39911        -0.56560
C         35.36799        44.52590        -0.94302
C         34.11001        43.76781        -0.71136
C         35.32147        46.00818        -0.69613
C         34.04549        46.73194        -0.94494
C         35.37883        48.91557        -1.29269
C         34.00198        48.21382        -1.29441
C         35.47583        50.39028        -1.13899
C         37.98708        22.83731         0.23721
C         36.87762        22.07732         0.67463
C         37.92839        24.26334         0.31754
C         36.73800        24.92784         0.75662
C         37.86582        27.14192         0.30981
C         36.64070        26.42519         0.74863
C         37.79418        28.56956        -0.19908
C         36.50049        29.31351         0.04120
C         37.76899        31.51354        -0.29329
C         36.52450        30.75814        -0.35876
C         37.79532        33.00316         0.00844
C         36.52436        33.79340        -0.24466
C         37.76274        35.91352        -0.19799
C         36.61297        35.24964         0.09340
C         37.78913        37.43049        -0.12548
C         36.39423        37.96519        -0.52131
C         38.13416        40.30881        -1.17223
C         36.23557        39.24517        -1.10426
C         37.93011        41.71406        -0.90463
C         36.69084        42.31688        -0.90770
C         37.95038        44.52687        -0.69225
C         36.68297        43.80112        -0.96720
C         37.91143        45.98743        -0.47647
C         36.61371        46.74379        -0.60361
C         37.95365        48.93014        -0.96609
C         36.65742        48.16432        -1.08475
C         37.92408        50.38453        -0.70505
C         36.63624        51.03845        -0.85161
C         40.47712        20.12587        -0.61646
C         39.27252        20.77462        -0.35593
C         40.40438        22.94601        -0.31310
C         39.21416        22.17586        -0.16302
C         40.33509        24.36491        -0.21492
C         39.12470        25.02176         0.09166
C         40.34273        27.21896         0.22334
C         39.05926        26.46594         0.15807
C         40.31565        28.73620         0.24394
C         39.02332        29.41785         0.05951
C         40.26396        31.51335        -0.42453
C         38.98822        30.79305        -0.13466
C         40.26630        33.01835        -0.60002
C         39.01454        33.74097        -0.45203
C         40.31823        35.91062        -0.50633
C         38.98411        35.20630        -0.77523
C         40.31440        37.35172        -0.44527
C         39.02487        38.02734        -0.88053
C         40.19232        40.19936         0.13308
C         39.10181        39.53311        -0.65217
C         40.23761        41.70227        -0.10458
C         39.16261        42.41504        -0.56030
C         40.41365        44.55436        -0.29515
C         39.15091        43.86802        -0.53029
C         40.51168        45.99833        -0.70386
C         39.20565        46.72449        -0.46093
C         40.42868        48.90494        -0.27869
C         39.23346        48.18691        -0.75263
C         40.36687        50.31329        -0.16062
C         39.11444        51.04214        -0.40332
C         40.29516        53.16875        -0.02306
C         39.18029        52.49631        -0.37273
C         42.95344        20.16081        -0.81510
C         41.68686        20.83294        -0.61414
C         42.89267        22.94252        -0.32180
C         41.67468        22.25792        -0.44451
C         42.89678        24.39172        -0.45358
C         41.55562        25.15147        -0.47637
C         42.81122        27.29425        -0.17924
C         41.60380        26.57225        -0.13987
C         42.79527        28.73489        -0.09959
C         41.57772        29.44654        -0.02818
C         42.75903        31.58969        -0.23104
C         41.55789        30.84684        -0.18725
C         42.72362        33.03560        -0.30527
C         41.54221        33.74444        -0.42964
C         42.78235        35.90543        -0.27959
C         41.51691        35.19456        -0.41619
C         42.79589        37.38124        -0.59202
C         41.49423        38.08088        -0.29284
C         42.70202        40.22538        -0.05842
C         41.51719        39.51670        -0.14254
C         42.73576        41.74941        -0.14926
C         41.46655        42.40141         0.41854
C         42.80048        44.57199         0.37327
C         41.53865        43.88401         0.12143
C         42.81039        46.03005         0.33634
C         41.66724        46.73187        -0.05569
C         42.81271        48.89132         0.25861
C         41.61399        48.17075        -0.00400
C         42.78130        50.31822         0.28257
C         41.54895        51.00720         0.18610
C         42.79689        53.16625         0.16482
C         41.50974        52.47377         0.52686
C         44.13543        20.79528        -0.65687
C         45.32784        23.03708        -0.82565
C         44.22035        22.21496        -0.15995
C         45.46722        24.43945        -0.40943
C         44.11008        25.18304        -0.13688
C         45.31889        27.33159        -0.27241
C         44.08596        26.62879        -0.25812
C         45.27587        28.77226        -0.17296
C         44.02765        29.45670        -0.13800
C         45.21144        31.58183         0.18968
C         43.99903        30.88489        -0.09897
C         45.13014        33.04881         0.41244
C         44.04380        33.75991        -0.35794
C         45.22386        35.95829         0.14726
C         43.97187        35.24188        -0.08916
C         45.21998        37.39824         0.18657
C         44.00912        38.10227        -0.08406
C         45.07714        40.18812         0.59120
C         43.95196        39.49379         0.06919
C         44.84177        41.50333         1.08985
C         43.89712        42.40122         0.59975
C         45.16958        44.61288         1.33661
C         43.94656        43.83627         0.74399
C         45.23927        46.07729         0.90550
C         44.03640        46.75942         0.61431
C         45.25559        48.91481         0.55214
C         44.03632        48.18350         0.46820
C         45.23867        50.34958         0.35092
C         44.02592        51.04645         0.29055
C         43.96280        52.49043         0.11105
C         47.20972        23.37960        -2.32011
C         46.16034        22.56253        -1.80388
C         47.42759        24.65693        -1.84477
C         46.56282        25.29225        -0.88603
C         47.79400        27.56801        -0.80690
C         46.56598        26.66954        -0.56341
C         47.73503        28.84675         0.00480
C         46.48358        29.50543         0.03976
C         47.58460        31.59521         0.98899
C         46.40263        30.89534         0.36660
C         47.67738        33.05594         0.48618
C         46.38287        33.81299         0.65901
C         47.66143        35.96453         0.56121
C         46.41206        35.27328         0.41129
C         47.65924        37.39047         0.59391
C         46.41319        38.10177         0.49459
C         47.57352        40.25609         0.74478
C         46.37245        39.54154         0.65798
C         47.63310        41.73962         0.67790
C         46.64055        42.58723         1.32121
C         47.74582        44.64476         0.85718
C         46.51003        43.93327         1.07703
C         47.76540        46.09737         0.95412
C         46.47261        46.79757         0.91070
C         47.73101        48.98977         0.78227
C         46.46847        48.21258         0.76402
C         47.68223        50.38494         0.31360
C         46.50556        51.03010         0.17114
C         50.71993        25.21339        -1.69523
C         49.42577        25.82333        -1.53667
C         50.21787        27.31209         0.22961
C         49.14097        26.85751        -0.68577
C         50.13276        28.70252         0.88007
C         48.91226        29.51375         0.47091
C         50.15234        31.58842         1.24059
C         48.89197        30.86077         0.80577
C         50.11863        33.02763         0.79399
C         48.88021        33.79759         1.10308
C         50.11119        35.95011         0.68016
C         48.89596        35.26048         0.70214
C         50.11347        37.37093         0.68657
C         48.89697        38.07870         0.74916
C         50.14682        40.31173         0.66628
C         48.86115        39.55074         0.86171
C         50.16677        41.69873         0.03158
C         48.89440        42.50139         0.28867
C         50.22612        44.57211         0.88433
C         48.92612        43.92272         0.67434
C         50.27348        46.06813         0.99292
C         48.97646        46.77049         0.89506
C         50.22852        48.76551         0.03339
C         49.04465        48.24243         0.77131
C         51.77080        25.62764        -0.94700
C         52.82278        27.33062         0.57740
C         51.58897        26.63485         0.10575
C         52.72385        28.80566         0.87573
C         51.40318        29.50490         0.69090
C         52.62267        31.65817         0.61291
C         51.40081        30.86626         0.79303
C         52.58742        32.99960         0.37150
C         51.29386        33.75027         0.19928
C         52.64541        35.90099         0.28167
C         51.41283        35.17349         0.82974
C         52.60908        37.30893         0.17990
C         51.42569        38.06438         0.63023
C         52.61901        40.29441        -0.03876
C         51.45446        39.56719         0.55112
C         52.65640        41.65634         0.01141
C         51.44499        42.39386         0.56043
C         52.56373        44.63173        -0.21335
C         51.36820        43.86956         0.23219
C         52.80129        45.98368         0.35999
C         51.59207        46.84881         0.80890
C         51.36964        48.06647        -0.06022
C         55.19802        27.34762         1.33955
C         53.98661        26.67421         0.85898
C         55.57695        28.54379         0.79096
C         53.80311        29.60661         0.21488
C         55.16568        31.64800         0.47700
C         53.88691        30.94975         0.41045
C         55.12608        33.03274         0.35358
C         53.83637        33.67581        -0.14941
C         55.10177        35.85603        -0.42695
C         53.81204        35.18246        -0.00635
C         55.12514        37.36720        -0.26382
C         53.84132        38.10106        -0.07884
C         54.98902        40.21882        -1.01564
C         53.67021        39.46455        -0.75376
C         55.06636        41.72242        -0.84108
C         53.79937        42.42840        -0.45293
C         55.61977        44.64630        -0.10106
C         53.69674        43.77808        -0.62619
C         55.29234        45.62166         0.79599
C         54.03848        46.36487         0.80687
C         56.49723        29.58264         1.21990
C         56.33797        30.92195         0.96788
C         56.26667        33.88791         0.58230
C         56.27498        35.20077         0.25783
C         56.25780        38.07765        -0.90994
C         56.22354        39.39991        -1.13906
C         56.38216        42.32753        -0.45689
C         56.62686        43.59266        -0.02833
O         32.03769        31.21530         1.69718
O         54.85726        28.91316        -0.37632
O         31.93617        35.64806         1.91500
O         45.47163        33.46978         1.76222
O         45.69243        41.94709         2.12167
O         33.25422        28.97395         1.65170
O         37.17374        39.71869        -2.00316
O         38.83519        48.56843        -2.10390
O         30.07816        44.44659         1.63102
O         49.61706        40.20004         2.00922
O         35.80646        33.59544        -1.48699
O         35.81959        46.50139         0.61307
O         48.45872        25.37680        -2.46189
O         40.23797        32.09082        -1.78102
O         50.63633        26.26968         1.18080
O         54.75869        44.47483        -1.20925
O         38.58639        46.38471         0.80238
O         36.13210        48.36163        -2.44071
O         38.96861        37.76392        -2.26881
O         31.84003        44.04981        -1.66519
O         36.01102        44.25340        -2.23866
O         51.43438        44.35224        -1.14288
O         40.40452        27.96408         1.50451
O         48.58851        48.90571         1.99452
O         31.28851        42.05248         1.50310
O         30.86091        40.01874        -1.35728
O         29.50019        31.29264        -1.07290
O         42.26831        24.82559        -1.71646
O         54.79893        37.96483         1.03585
O         35.68967        31.00666        -1.53717
O         50.39783        45.19932         2.18957
O         36.06581        26.99570         1.98733
O         51.77289        38.90053         1.82165
O         27.80584        32.18872         1.99998
O         54.93120        41.12366        -2.17959
O         47.87776        42.21129        -0.72812
O         44.96963        24.70878         0.93582
O         34.68350        24.66179         2.03447
O         31.02308        26.93284         1.73904
O         51.46844        42.35518         1.99685
H         51.38522        41.42744         2.30967
O         55.28154        35.64542        -1.88025
H         54.63930        36.22429        -2.34559
O         40.74110        46.03358        -2.14140
H         41.53898        45.49907        -2.33716
O         50.20277        31.55162         2.71677
H         50.07019        30.60852         2.97176
O         37.89970        33.06445         1.49964
H         38.67858        32.53505         1.77763
O         51.08160        33.94238        -1.23035
H         51.93209        33.72564        -1.68848
O         47.33376        31.56661         2.41566
H         47.89807        32.26521         2.83537
O         37.82931        28.37555        -1.66812
H         37.66356        29.24759        -2.09068
O         32.95130        27.09958        -1.46053
H         32.44380        27.83489        -1.88004
O         38.82420        35.19894        -2.21766
H         38.82259        36.18980        -2.49343
O         31.52111        29.48039        -1.52766
H         30.77148        30.06215        -1.81737
O         33.56550        48.26503        -2.69156
H         34.35139        48.03138        -3.23823
O         50.31912        41.52687        -1.38655
H         49.44025        41.69418        -1.79912
O         31.45918        33.96085        -1.38662
H         30.72450        34.57197        -1.61888
O         30.22556        37.34850        -1.65016
H         30.45051        38.26140        -1.95962
O         41.39620        52.54444         1.99572
H         41.46736        53.48811         2.25126
O         50.00640        28.50674         2.32720
H         50.13019        27.53924         2.48953
O         53.11544        39.13358        -2.05659
H         53.22931        39.93332        -2.62026
O         41.52087        42.21872         1.86687
H         40.86332        42.82432         2.27074
O         42.78920        42.09795        -1.55363
H         43.47109        41.54235        -1.98535
O         44.53516        22.10182         1.25907
H         44.70773        23.01603         1.59242
O         44.51631        33.64195        -1.75079
H         43.85376        34.07820        -2.32916
O         28.61299        40.23549         2.32309
H         28.07920        40.73838         2.97225
O         52.98588        28.94234         2.32581
H         52.12971        28.77162         2.78133
O         51.62028        34.96584         2.25151
H         51.84379        35.83138         2.65639
O         35.84436        36.40270         2.03877
H         35.54120        35.68799         2.65331
O         42.89855        37.43038        -2.07350
H         41.99464        37.29250        -2.43523
O         27.74072        28.82175         2.40389
H         28.55449        28.38484         2.73433
O         47.68396        28.03324        -2.19130
H         47.76275        27.23759        -2.76653
O         39.94116        40.00427         1.55346
H         40.59938        40.56046         2.03605
O         28.28611        39.83683        -1.26466
H         28.95417        39.62831        -1.95478
O         34.17742        34.67137         2.23218
H         33.25569        34.70318         2.59919
O         47.93799        33.02720        -0.93235
H         47.10394        32.83732        -1.41279
O         37.97828        37.84342         1.23928
H         37.27319        37.42094         1.79219
O         51.91218        47.37598         2.11714
H         51.62494        46.70424         2.77633
O         44.93559        44.63240         2.77196
H         45.00043        43.70155         3.08419
O         53.79064        33.42896        -1.61268
H         54.49759        34.00492        -2.00675
O         48.72539        33.82349         2.55812
H         49.62301        33.95340         2.94149
O         35.64758        41.60878         1.01774
H         34.86035        41.21701         1.45516
H         26.77736        26.76239         0.51853
H         25.60688        28.88255         0.27441
H         25.53922        31.33547         0.11332
H         25.56809        33.39663         0.89410
H         25.61368        35.81892         0.65978
H         25.67087        37.72454         0.96355
H         25.75692        40.10003         1.38822
H         25.72877        42.07967         0.84641
H         25.73730        44.51429         0.52035
H         27.03374        46.67693         0.25881
H         28.86985        25.50817         0.28167
H         29.11406        47.85869        -0.18322
H         32.70262        23.35782         0.94464
H         30.61377        24.44992         0.04680
H         32.95886        49.97137        -0.32572
H         30.90714        48.75394         0.18472
H         34.97216        22.12353         1.69547
H         34.55374        50.98068        -1.24244
H         36.90027        20.98106         0.63469
H         36.59094        52.12988        -0.72495
H         40.48635        19.03870        -0.78009
H         38.35437        20.17406        -0.31575
H         40.29980        54.27018        -0.04354
H         38.29977        53.06517        -0.70449
H         42.93072        19.09441        -1.08707
H         42.78334        54.25985         0.03549
H         45.07496        20.23096        -0.74897
H         44.88961        53.04820        -0.08239
H         47.86097        22.98804        -3.11138
H         46.05248        21.53825        -2.18615
H         48.62827        50.93346         0.20729
H         46.51278        52.09203        -0.10713
H         50.84647        24.46619        -2.48993
H         50.12142        49.70766        -0.52561
H         52.78725        25.26513        -1.15696
H         52.20958        48.44823        -0.65923
H         55.75968        26.89351         2.16896
H         54.00322        25.57125         0.81077
H         55.98722        45.83862         1.62114
H         54.06318        47.29875         1.39284
H         57.39059        29.27343         1.78611
H         57.17205        31.55857         1.30406
H         57.16663        33.45619         1.04530
H         57.16239        35.81519         0.46872
H         57.16487        37.49946        -1.13966
H         57.09197        39.89008        -1.60299
H         57.22050        41.61568        -0.39318
H         57.61912        43.82961         0.38756
