         334
 CSIRO Nanostructure Databank - Neutral Graphene Oxide Data Set
C         30.26874        57.17315        -0.84699
C         30.43523        58.58731        -0.84332
C         29.25366        59.37124        -0.90825
C         30.45631        61.46276        -0.67103
C         29.27498        60.77227        -0.88102
C         32.99273        52.90164        -1.14309
C         32.93156        54.38594        -1.43012
C         31.61420        54.96487        -0.92887
C         33.18096        57.36232        -0.91837
C         31.31835        56.27382        -1.20911
C         32.92514        58.65884        -0.39350
C         31.69406        59.29830        -0.58718
C         32.81796        61.45404        -0.06296
C         31.67474        60.75205        -0.41392
C         35.47561        48.65284        -0.89633
C         35.47121        50.06351        -0.96554
C         34.24626        50.77905        -1.07977
C         35.44925        52.96678        -1.19251
C         34.18147        52.19417        -1.12487
C         35.37721        54.39756        -0.80656
C         34.20464        55.10096        -0.90056
C         35.40058        57.13830         0.01319
C         34.20697        56.50932        -0.51844
C         35.33019        58.56805         0.44125
C         34.02535        59.29709         0.37423
C         35.33638        61.43305         0.28592
C         34.00091        60.80699         0.60359
C         37.89382        44.38593        -0.81053
C         37.90327        45.78390        -0.66428
C         36.68613        46.51639        -0.74679
C         37.91014        48.63617        -0.50701
C         36.67911        47.92650        -0.72020
C         37.91804        50.06032        -0.54749
C         36.72201        50.75647        -0.85029
C         37.98399        52.92405        -0.63660
C         36.77246        52.20893        -1.03212
C         37.92916        54.43543        -0.60022
C         36.57956        54.95114        -0.06490
C         37.86283        57.24207         0.02235
C         36.58189        56.45145         0.06100
C         37.76382        58.57859         0.72714
C         36.59105        59.33172         0.65581
C         37.76357        61.57281         0.30825
C         36.55342        60.79439         0.51105
C         40.16406        40.05926         0.05942
C         40.19037        41.47372        -0.05311
C         39.03929        42.18508        -0.37991
C         40.24661        44.33872        -0.05063
C         39.17079        43.59917        -0.87533
C         40.43934        45.77190        -0.53515
C         39.13001        46.50979        -0.45298
C         40.34994        48.61759        -0.02284
C         39.13324        47.91101        -0.32196
C         40.33970        50.05216         0.00260
C         39.14829        50.77218        -0.31635
C         40.39434        52.89669        -0.03991
C         39.16474        52.21192        -0.33582
C         40.43063        54.39675        -0.24455
C         39.10370        54.96917         0.25514
C         40.28032        57.13085         0.66246
C         39.11412        56.47505         0.35205
C         40.25023        58.54770         0.98458
C         38.98543        59.11599         1.19059
C         40.31706        61.52561         0.50058
C         38.99802        61.21538         0.86546
C         42.57203        35.74850        -0.05600
C         42.55238        37.15144         0.16880
C         41.34804        37.89591         0.10901
C         42.61079        39.99766         0.33214
C         41.35544        39.30634         0.17712
C         42.66304        41.42040         0.32377
C         41.47142        42.17096         0.10172
C         42.74234        44.26137         0.35509
C         41.53575        43.56851         0.06686
C         42.74980        45.72549         0.42705
C         41.60256        46.46215         0.13533
C         42.75403        48.57537         0.60027
C         41.57311        47.89515         0.24712
C         42.69729        50.04252         0.95887
C         41.51223        50.77077         0.37321
C         42.73411        52.91389         0.92347
C         41.53037        52.18080         0.35259
C         42.89467        54.32099         0.32479
C         41.61310        55.09068         0.38550
C         42.75389        57.16985         1.08427
C         41.55892        56.41932         0.72840
C         42.67452        58.57913         1.29046
C         41.44823        59.30890         1.17514
C         42.70175        61.41146         0.83907
C         41.46581        60.76070         0.93667
C         45.02267        33.01593        -0.84093
C         43.81099        33.67526        -0.63518
C         45.03226        35.68793         0.02313
C         43.79526        35.03154        -0.20731
C         45.03112        37.04130         0.66748
C         43.78213        37.84199         0.40641
C         45.05748        39.94762         0.69405
C         43.80852        39.24674         0.50071
C         45.11044        41.34697         0.69908
C         43.89962        42.11036         0.53915
C         45.17539        44.21630         1.09371
C         43.91811        43.52762         0.60137
C         45.20404        45.70771         0.84352
C         43.99014        46.41268         0.70284
C         45.21522        48.53388         0.84642
C         43.98287        47.85173         0.72519
C         45.23440        50.00004         0.65706
C         43.99469        50.77708         0.71443
C         45.27104        52.88302         0.94884
C         44.02838        52.14557         0.75840
C         45.24535        54.34024         1.11021
C         44.06736        55.05454         0.91698
C         45.22103        57.15172         1.45169
C         44.00494        56.46888         1.15831
C         45.18845        58.58496         1.77788
C         43.88214        59.29996         1.69815
C         45.21286        61.46838         1.13221
C         43.91562        60.85840         1.40342
C         46.23754        33.67521        -0.65722
C         47.49944        35.74407        -0.13525
C         46.26615        35.03125        -0.22580
C         47.53722        37.14539         0.08934
C         46.28806        37.82990         0.43718
C         47.60667        39.83865         0.93490
C         46.27679        39.17903         0.68250
C         47.54664        41.34110         1.00522
C         46.39655        42.03676         0.81444
C         47.70465        44.21723         1.01650
C         46.42884        43.52884         0.55089
C         47.70492        45.68496         1.02529
C         46.44956        46.39237         0.91441
C         47.67997        48.52731         1.13736
C         46.44283        47.82815         0.93981
C         47.65175        49.98182         1.59110
C         46.51313        50.75043         0.96103
C         47.68188        52.87467         1.71392
C         46.44294        52.19628         1.18242
C         47.70187        54.35126         1.42333
C         46.48265        55.04371         1.34549
C         47.70850        57.19914         1.37677
C         46.46224        56.47892         1.41908
C         47.71939        58.62004         1.30814
C         46.49654        59.37444         1.64048
C         47.64483        61.45105         0.91055
C         46.42986        60.80707         1.25594
C         48.67256        37.90818        -0.19003
C         49.79301        40.24105        -0.33440
C         48.53962        39.41267        -0.22226
C         49.86971        41.51496         0.15519
C         48.88291        41.99829         1.22116
C         50.21041        44.15933         1.40687
C         48.83815        43.51123         1.26368
C         50.17349        45.69258         1.68051
C         48.90996        46.39190         1.16789
C         50.10743        48.57949         1.64735
C         48.87197        47.81835         1.22674
C         50.10755        50.01507         1.18656
C         48.93787        50.73242         1.32149
C         50.16780        52.87397         1.18857
C         48.93380        52.15537         1.28448
C         50.16843        54.33187         1.23425
C         48.94339        55.04421         1.33358
C         50.14412        57.17860         0.97817
C         48.93343        56.48000         1.23221
C         50.12589        58.60484         0.82449
C         48.90091        59.31684         0.99184
C         50.07544        61.43910         0.55064
C         48.87686        60.76030         0.83350
C         50.85307        42.45562        -0.31845
C         51.88949        44.64664        -0.45911
C         50.97117        43.74746         0.15408
C         52.23807        45.87921         0.06213
C         51.54774        46.37349         1.34646
C         52.54280        48.66002         1.21517
C         51.40010        47.88387         1.34463
C         52.60432        50.00967         0.82613
C         51.30454        50.72358         0.62234
C         52.69897        52.84292         1.11326
C         51.35788        52.17319         1.00045
C         52.60335        54.31546         0.74279
C         51.38317        55.02894         0.95883
C         52.56755        57.15716         0.50243
C         51.36769        56.45556         0.81622
C         52.55655        58.60651         0.38710
C         51.32343        59.31275         0.53766
C         52.51420        61.43456         0.17105
C         51.30744        60.74722         0.41746
C         53.28909        46.59490        -0.61220
C         54.83821        48.61403        -0.73525
C         53.99411        47.67353        -0.09320
C         54.91401        49.96705        -0.32375
C         53.80578        50.66966         0.36854
C         55.03324        52.80242         0.08498
C         53.81510        52.06376         0.42861
C         55.00287        54.29860         0.04705
C         53.73620        55.01373         0.32998
C         54.97501        57.12411        -0.13744
C         53.74746        56.43127         0.23990
C         55.06175        58.59211         0.19294
C         53.73973        59.30999         0.13525
C         54.95893        61.43580        -0.19786
C         53.74165        60.74133         0.03857
C         56.00114        50.73066        -0.82339
C         57.26909        52.85054        -1.00370
C         56.12912        52.11104        -0.62763
C         57.28855        54.26678        -0.99968
C         55.94617        54.97091        -0.93002
C         57.18277        57.16894        -1.31532
C         56.03676        56.45431        -0.66732
C         57.28195        58.62401        -0.98362
C         56.17664        59.31678        -0.51419
C         57.34421        61.44433        -0.87562
C         56.17234        60.75466        -0.49991
C         58.45816        54.99772        -1.20590
C         59.65845        57.13167        -1.49728
C         58.48632        56.42176        -1.29310
C         59.68464        58.57238        -1.56518
C         58.49016        59.31366        -1.28904
C         59.74695        61.41018        -1.51597
C         58.52284        60.74134        -1.21960
C         60.87160        59.27562        -1.82209
C         60.88757        60.68281        -1.81466
O         53.77570        47.97843         1.27331
O         34.38907        58.60087         1.62247
O         36.24474        52.67488        -2.36953
O         55.57271        53.65318         1.21717
O         56.73110        57.12447        -2.81602
O         43.70770        60.27218         2.73609
O         46.18636        50.37694        -0.41267
O         38.90999        60.28871         1.93888
O         32.33546        56.94279        -1.93899
O         45.96343        58.98782         2.94597
O         42.50250        53.05694         2.34331
H         42.44598        52.14409         2.71500
O         36.39692        54.40615         1.29608
H         35.62198        54.85977         1.69252
O         39.72751        44.45936         1.30264
H         39.56257        43.55287         1.63940
O         43.20410        54.10207        -1.10413
H         43.71052        54.87880        -1.42351
O         50.94458        43.57429         2.51255
H         50.64597        44.06137         3.31597
O         40.82042        45.74867        -1.95749
H         40.90875        46.67946        -2.25412
O         57.69410        57.83127        -3.61279
H         58.46421        57.21152        -3.65643
O         38.01566        54.95492        -1.95024
H         38.90720        54.70451        -2.30071
O         32.94713        54.50519        -2.88325
H         33.81617        54.17838        -3.19935
O         40.58887        54.61557        -1.68445
H         41.50756        54.30747        -1.89643
O         45.01810        36.76905         2.13150
H         45.40617        37.55328         2.57752
O         47.80031        39.71877        -1.46053
H         48.32254        39.36901        -2.21290
O         53.08063        52.83490         2.53551
H         53.99456        53.20532         2.57321
O         48.08794        39.26357         2.16818
H         48.72215        39.90928         2.57056
O         33.78820        61.05109         2.03186
H         34.07751        60.22634         2.49352
O         51.10405        50.71645        -0.86873
H         50.23309        51.13518        -1.04408
O         47.41741        49.93713         3.02010
H         48.25901        49.61904         3.42917
O         50.00204        48.64242         3.12771
H         49.86976        47.70312         3.42050
O         49.37776        41.52095         2.50653
H         50.21698        42.02420         2.68387
O         55.31499        54.80409        -2.23722
H         55.74513        55.44526        -2.85110
O         52.43099        46.00172         2.44647
H         53.25708        46.53280         2.32089
O         55.44424        58.62855         1.62103
H         55.46378        59.57130         1.89222
O         46.37568        43.69308        -0.89342
H         47.06804        43.12627        -1.29316
O         45.21106        44.04118         2.54015
H         44.43832        44.50638         2.92319
O         50.04539        45.85770         3.13274
H         50.97800        45.96243         3.45907
O         42.50455        50.10523         2.43352
H         41.69939        49.58373         2.64213
O         47.64152        52.76080         3.18154
H         46.77719        53.11218         3.48356
O         39.00672        54.45573         1.60501
H         38.06702        54.52793         1.90133
O         39.53565        43.47316        -2.28196
H         39.99968        44.30371        -2.55074
O         38.02208        57.62366        -1.39909
H         38.03719        56.76405        -1.90066
H         29.25439        56.77995        -0.67634
H         28.29175        58.85495        -1.04109
H         30.45964        62.56038        -0.61374
H         28.33453        61.32590        -1.01197
H         32.04499        52.34123        -1.16050
H         30.92981        54.33127        -0.34783
H         32.76849        62.55377        -0.02517
H         34.52827        48.10465        -1.00343
H         33.30630        50.20810        -1.09426
H         35.34967        62.51475         0.07908
H         36.94053        43.87899        -1.02672
H         35.74162        45.97349        -0.89835
H         37.69289        62.46355        -0.33388
H         39.20515        39.53320        -0.05956
H         38.08931        41.64714        -0.52300
H         40.51014        62.41411        -0.11976
H         41.62134        35.22317        -0.23203
H         40.39475        37.36865        -0.04332
H         42.74738        62.40975         0.37782
H         45.01993        31.96644        -1.16800
H         42.85954        33.15086        -0.80333
H         45.21096        62.48008         0.69770
H         47.18488        33.15147        -0.84960
H         48.43127        35.21978        -0.39710
H         47.62545        62.52855         0.68880
H         49.58381        37.41964        -0.57113
H         50.54410        39.91212        -1.07431
H         50.06065        62.53311         0.43603
H         51.48771        42.14518        -1.16438
H         52.42582        44.28584        -1.35160
H         52.50318        62.53131         0.08639
H         53.53278        46.26228        -1.63321
H         55.44739        48.29999        -1.59717
H         54.94254        62.53530        -0.23700
H         56.78925        50.20198        -1.38080
H         58.17348        52.30657        -1.31804
H         57.34750        62.54462        -0.88072
H         59.41526        54.45696        -1.27858
H         60.61341        56.58828        -1.57187
H         59.77985        62.50883        -1.48976
H         61.79867        58.72068        -2.02627
H         61.82794        61.20914        -2.03163
