         276
 CSIRO Nanostructure Databank - Neutral Graphene Oxide Data Set
C        -11.29122         0.69982         0.23720
C         -9.99395         1.42212         0.53958
C         -8.86908         0.66918        -0.13857
C         -7.59394         1.37098        -0.41422
C         -6.36288         0.54253        -0.49564
C         -5.03684         1.11172        -0.10084
C         -3.81856         0.63828        -0.83393
C         -2.49612         1.30586        -0.60086
C         -1.26028         0.62371        -1.17385
C          0.08242         1.18483        -0.77807
C          1.32094         0.52510        -1.32022
C          2.53548         1.40767        -1.59341
C          3.78609         0.77469        -2.13669
C          5.13509         1.52942        -2.30496
C          6.37008         0.87763        -1.66732
C          7.60579         1.73654        -1.48249
C          8.77022         1.11823        -0.74503
C          9.84764         2.05024        -0.18667
C         11.04965         1.20772         0.21078
C         -9.92554         2.91112         0.24118
C         -8.71859         3.57311         0.09873
C         -7.45240         2.81622        -0.11003
C         -6.15323         3.37187         0.38205
C         -4.94624         2.47696         0.55085
C         -3.60904         3.06655         0.91544
C         -2.28388         2.34744         0.51094
C         -1.15603         3.31898         0.09150
C          0.11580         2.72264        -0.60768
C          1.46422         3.19934        -0.03520
C          2.67847         2.64413        -0.73437
C          3.98189         3.42486        -0.78797
C          5.02626         3.04992        -1.83810
C          6.27180         3.89740        -1.86167
C          7.61632         3.20524        -1.80228
C          8.82410         3.97634        -1.38574
C         10.12216         3.19910        -1.19076
C         -8.54577         4.98857         0.05676
C         -7.28040         5.57578         0.34700
C         -6.26774         4.71099         1.09128
C         -4.88207         5.33331         1.39774
C         -3.59235         4.52760         1.38291
C         -2.19069         5.11639         1.71956
C         -1.07301         4.64875         0.77697
C          0.29066         5.21764         1.12968
C          1.57441         4.51574         0.71724
C          2.90764         5.23801         0.81650
C          4.12350         4.68438         0.05424
C          5.29104         5.61301        -0.19323
C          6.18015         5.37095        -1.41981
C          7.51579         6.06164        -1.17814
C          8.76142         5.31521        -1.19262
C         -7.05600         6.92101         0.14243
C         -5.90275         7.62084         0.71999
C         -4.81008         6.84188         1.40149
C         -3.46364         7.49101         1.64366
C         -2.21461         6.66785         1.84053
C         -0.88953         7.46831         1.73027
C          0.36424         6.60939         1.66721
C          1.65591         7.42302         1.76859
C          2.95473         6.67918         1.33585
C          4.17063         7.54201         1.12976
C          5.31943         7.01727         0.30973
C          6.17086         8.03239        -0.49230
C          7.48807         7.36762        -0.81103
C         -5.62065         9.00500         0.28073
C         -4.47633         9.62536         0.58498
C         -3.29973         8.99142         1.29077
C         -2.07080         9.26789         0.45777
C         -0.89461         8.35135         0.45191
C          0.40226         9.13022         0.37369
C          1.53367         8.74358         0.99796
C          2.70495         9.65543         1.10107
C          4.07446         9.05206         1.23987
C          5.30411         9.83463         0.95815
C          6.32538         9.33443         0.25193
C        -11.32983        -0.64774         0.06693
C        -10.15098        -1.49895         0.02089
C         -8.79691        -0.82730         0.04580
C         -7.84746        -1.53713        -0.93113
C         -6.50380        -0.80140        -1.16152
C         -5.19774        -1.52169        -1.26940
C         -3.90426        -0.73520        -1.46005
C         -2.66631        -1.46432        -1.91217
C         -1.33579        -0.73463        -1.84129
C         -0.06299        -1.50023        -2.21334
C          1.24464        -0.76361        -2.12232
C          2.54547        -1.58229        -2.31804
C          3.83372        -0.73961        -2.08988
C          5.03266        -1.33449        -1.39488
C          6.29982        -0.50906        -1.11951
C          7.23169        -0.84843         0.03198
C          8.60490        -0.18914        -0.04730
C          9.53010        -0.52832         1.13182
C         10.91113         0.01296         0.81353
C        -10.17220        -2.87307        -0.00288
C         -8.94704        -3.64967        -0.07668
C         -7.66611        -2.85114        -0.16221
C         -6.39679        -3.66027        -0.46698
C         -5.11768        -2.95280        -0.84946
C         -3.75402        -3.64368        -1.02243
C         -2.68061        -2.97871        -1.90547
C         -1.37710        -3.73676        -1.91313
C         -0.02708        -3.06621        -2.31028
C          1.16731        -3.62610        -1.50676
C          2.46929        -2.88253        -1.50493
C          3.73461        -3.58290        -1.07532
C          4.92936        -2.71345        -0.77979
C          5.30720        -2.82949         0.67920
C          7.57170        -2.34917         0.07942
C          8.36576        -2.79802         1.27096
C          9.42624        -1.97711         1.60217
C         -8.87769        -5.00049         0.15805
C         -7.66137        -5.77987        -0.01804
C         -6.59475        -5.11951        -0.92997
C         -5.24831        -5.88793        -0.98699
C         -3.91914        -5.14891        -1.22953
C         -2.62327        -5.86576        -1.03869
C         -1.35529        -5.03314        -1.09669
C         -0.08238        -5.77884        -0.84973
C          1.21152        -5.11234        -1.21719
C          2.39132        -5.68229        -0.49756
C          3.62384        -4.86448        -0.26436
C          4.52986        -5.16631         0.89343
C          5.49808        -4.13221         1.49308
C          6.86526        -4.80896         1.73173
C          8.09962        -4.11006         1.79637
C         -7.54115        -7.05725         0.43976
C         -6.54042        -8.02886        -0.15820
C         -5.21533        -7.31154        -0.50581
C         -3.94086        -7.77975         0.15257
C         -2.59900        -7.02535        -0.04134
C         -1.40231        -7.95170        -0.27348
C         -0.09707        -7.29411        -0.63307
C          1.26531        -7.97751        -0.27783
C          2.17986        -6.90366         0.35467
C          3.20149        -7.31106         1.35508
C          4.29863        -6.36774         1.75662
C          5.56902        -6.91442         2.37551
C          6.80383        -6.13908         2.18323
C         -6.34860        -9.35929         0.53881
C         -5.15927        -9.94501         0.75542
C         -3.90090        -9.15316         0.74043
C         -2.57415        -9.80237         0.90003
C         -1.42176        -9.26416         0.43662
C         -0.11857       -10.03617         0.52835
C          1.10773        -9.15775         0.70631
C          2.14205        -9.53625         1.48629
C          3.47084        -8.81440         1.40262
C          4.53867        -9.18125         2.41296
C          5.55593        -8.36048         2.73339
O          9.26565        -0.13108        -1.32380
O         -3.36368         1.74346        -1.68087
O          4.95817        -3.69304        -1.84009
O          5.35203         3.82877        -3.01185
O         -3.54031        -0.81697        -2.86809
O         -1.38606         0.50325        -2.61014
O          5.06383        -3.79480         2.81313
O          1.75960         7.72474         3.17006
O          0.33699         5.49373         2.57083
O          6.91863        -0.27813        -2.39759
O         -2.27234        -3.69902        -3.07680
O         -5.22448        -7.01904        -1.91606
O         -0.88123        -7.99751        -1.63425
O         -4.38650         2.30279         1.88200
O          2.45552         4.35398         1.86424
O          3.97755         6.82178         2.37552
O         -1.54250         4.55376        -0.59194
O         -7.16551        -5.07604        -2.19152
O          2.30607         2.22942         0.61574
O         -6.51146         3.49311        -1.02594
O         -4.37643         4.71164         2.60987
O         -5.73032         0.22398         0.81015
O         -6.01073        -1.16476        -2.46263
O         -8.55787         1.10082        -1.48560
O          7.48786        -3.06808        -0.89778
O         -6.94228         4.52389         2.41022
O          1.88319        -8.53128        -1.38527
O         -5.45861        -3.29327         0.55978
O         -4.14511        -7.95859         1.59983
O          0.50382        -0.79607        -3.36141
O          1.90414        -6.76179         1.77581
O          7.94842         2.23678        -2.84566
O          4.88049        -1.37156        -2.84194
O          4.50847        -6.19313         3.15536
O         -5.85498         7.45146         2.20311
O         -3.24295        -5.83769        -2.33158
O         -2.98156         7.13696         2.97746
O          2.16459        -5.92620        -1.92502
O          5.51303         5.98387        -2.52660
O          4.60780         3.40135         0.53854
O          1.55449        -2.80691        -0.36175
O          2.80135         1.40909        -3.01452
O          6.05729         5.96613         0.99736
O          4.85746        -5.64640        -0.43292
O         -7.50053        -2.37438         1.23489
O          0.90067         0.34809         0.06907
O         -0.68036        -4.92896         0.18272
O         -8.19283        -1.08898         1.35279
O          0.12535         3.24522        -1.95132
H         -0.68048         2.94704        -2.42692
O          3.35926         9.56541         2.39374
H          2.72046         7.67531         3.41045
O          6.63082        -0.31643         1.21785
H          7.29456        -0.25667         1.94405
O         -1.89383         4.54993         3.00082
H         -2.52174         4.94912         3.64476
O         -9.74705         1.31118         1.96986
H        -10.50362         1.70305         2.45321
O         -0.79474         8.33330         2.86634
H          0.02918         8.12045         3.37427
O         -3.05446         9.75184         2.49035
H         -2.35586         9.26168         3.00033
O          5.43060         8.38382        -1.68218
H          5.45427         7.58854        -2.29864
O         -3.07845        -3.47022         0.25877
H         -3.67949        -3.75025         0.98684
O         -2.34370        -6.35634         1.21300
H         -2.77838        -6.88665         1.92505
O          9.03303         0.24473         2.29202
H          9.63878         0.08393         3.04755
O          4.07079        -9.14746         0.12329
H          3.37908        -9.03058        -0.59400
O          9.30986         2.69582         0.98777
H          9.13750         2.00552         1.67343
O         -0.99970         7.40207        -0.65372
H         -1.02773         7.90467        -1.49519
O         -6.71780         3.17602         2.86421
H         -5.78327         3.20470         3.20305
O          2.60331        -2.02434        -3.67048
H          2.64143        -1.24557        -4.26355
O         -0.18915       -11.02279         1.55085
H         -0.33656       -10.57492         2.40888
O         -7.18580        -8.42744        -1.39636
H         -6.90649        -7.77500        -2.08704
O         -1.79746         1.62901         1.64915
H         -1.80672         2.22173         2.43340
O          0.23193        -3.44053        -3.65793
H         -0.58950        -3.30783        -4.18093
O          4.96149        -1.84948         1.33728
H          4.87865        -2.82088         2.81957
O         -8.49473        -1.73315        -2.17458
H         -7.80488        -1.80907        -2.87302
O         10.62113         2.68591        -2.41897
H          9.86985         2.27244        -2.90746
O          5.34224         1.50846        -3.70994
H          6.28804         1.71302        -3.88967
H         11.79453        -0.57697         1.10202
H         12.05598         1.60086         0.00026
H         10.89706         3.88264        -0.76134
H          9.67636         5.86406        -0.91833
H          8.42549         7.91005        -0.61157
H          7.24185         9.92340         0.10040
H          5.37358        10.82110         1.43910
H          2.59093        10.68387         0.69937
H          0.37706        10.11217        -0.12820
H         -1.88997        10.33465         0.23980
H         -4.33066        10.67438         0.28697
H         -6.41464         9.53569        -0.26577
H         -7.80754         7.52088        -0.39334
H         -9.40300         5.64619        -0.15273
H        -10.84133         3.50854         0.38277
H        -12.23117         1.27301         0.25277
H        -12.30662        -1.13903        -0.06696
H        -11.13118        -3.41276         0.03386
H         -9.79863        -5.55137         0.40764
H         -8.34596        -7.46970         1.07061
H         -7.26683        -9.95565         0.65273
H         -5.10739       -10.98251         1.11930
H         -2.54111       -10.79342         1.38081
H          0.01891       -10.57863        -0.44665
H          2.04933       -10.43571         2.11629
H          4.56660       -10.22655         2.75746
H          6.37330        -8.72692         3.37475
H          7.75583        -6.66373         2.36997
H          8.92419        -4.61495         2.32922
H         10.12154        -2.28469         2.40259
