         204
 CSIRO Nanostructure Databank - Neutral Graphene Oxide Data Set
C        -11.05876         0.67359        -0.53300
C         -9.90929         1.38588         0.02562
C         -8.68170         0.70691         0.38604
C         -7.44734         1.41752         0.46969
C         -6.24041         0.67971         0.54030
C         -4.96125         1.39011         0.74418
C         -3.74323         0.75494         0.11567
C         -2.45087         1.46599         0.43357
C         -1.24842         0.76043         0.29991
C         -0.00078         1.46920         0.30536
C          1.21384         0.77899         0.05560
C          2.44484         1.46274         0.05534
C          3.68862         0.73759        -0.07703
C          4.92019         1.43568        -0.02001
C          6.15927         0.71359        -0.00388
C          7.38579         1.42225         0.13914
C          8.63769         0.66327         0.49544
C          9.90422         1.41503         0.15594
C         11.12090         0.64301         0.05910
C         -9.87221         2.77464        -0.06417
C         -8.67683         3.53426         0.17650
C         -7.45057         2.85168         0.45010
C         -6.25126         3.59441         0.66558
C         -4.97795         2.87241         0.88733
C         -3.70524         3.61982         0.73482
C         -2.45076         2.87495         0.66281
C         -1.21569         3.55926         0.76782
C          0.00462         2.87768         0.53103
C          1.25139         3.60322         0.42774
C          2.46392         2.88117         0.19076
C          3.70204         3.59065         0.11467
C          4.93658         2.86130         0.05443
C          6.17381         3.55361         0.08028
C          7.40540         2.82202         0.13101
C          8.66157         3.54987         0.14147
C          9.89266         2.78500         0.08911
C         -8.64644         4.93777         0.02665
C         -7.44456         5.66339         0.17319
C         -6.24321         4.98277         0.54449
C         -5.01497         5.78070         0.93702
C         -3.73950         4.98640         0.76461
C         -2.51080         5.75263         1.01082
C         -1.19835         4.99966         1.11626
C          0.13065         5.76111         1.11021
C          1.27799         5.00485         0.51119
C          2.47489         5.74170         0.24865
C          3.71267         5.00222         0.10362
C          4.96424         5.69534         0.06159
C          6.19278         4.97701         0.08904
C          7.43447         5.68991         0.09186
C          8.65791         4.93526         0.11474
C         -7.35898         7.05226        -0.14138
C         -6.13032         7.73256        -0.18367
C         -4.91712         7.14798         0.28056
C         -3.67803         7.85922         0.25616
C         -2.50510         7.20099         0.74018
C         -1.21784         7.82397         0.85912
C          0.00049         7.20392         0.65644
C          1.28569         8.02087         0.55646
C          2.45000         7.13771         0.09887
C          3.70908         7.79643        -0.28278
C          4.98298         7.10451        -0.03502
C          6.20323         7.81537        -0.04304
C          7.41815         7.09738         0.04935
C         -6.08958         9.05642        -0.75437
C         -4.90702         9.70547        -0.90375
C         -3.65016         9.17592        -0.41776
C         -2.53213         9.92734        -0.77820
C         -1.21352         9.73648        -0.24578
C          0.02026         9.92588        -0.80832
C          1.24261         9.34146        -0.25725
C          2.41973         9.97415        -0.53194
C          3.73337         9.28738        -0.49375
C          5.01148         9.96872        -0.22512
C          6.16594         9.26950        -0.07136
C        -11.19949        -0.65816        -0.82426
C        -10.31040        -1.68891        -0.31629
C         -8.62404        -0.68410         0.57397
C         -7.45217        -1.44331         0.38773
C         -6.21901        -0.72151         0.41894
C         -4.96879        -1.44757         0.36627
C         -3.71770        -0.73871         0.31609
C         -2.49201        -1.41928         0.28912
C         -1.24402        -0.69536         0.20453
C         -0.05517        -1.39851         0.04063
C          1.17394        -0.65158        -0.40271
C          2.45797        -1.40267        -0.18060
C          3.68637        -0.68828        -0.16349
C          4.92332        -1.40530        -0.23870
C          6.16073        -0.70355        -0.15418
C          7.42497        -1.39935        -0.23938
C          8.62574        -0.76223         0.00730
C          9.87761        -1.47997        -0.07769
C         11.10914        -0.72140         0.00034
C         -9.84274        -2.85433        -0.86279
C         -8.65636        -3.55904        -0.35918
C         -7.49547        -2.86380         0.14944
C         -6.25353        -3.56723         0.24217
C         -5.01205        -2.84512         0.34765
C         -3.74347        -3.59526         0.04645
C         -2.46362        -2.84716         0.29057
C         -1.25870        -3.55233         0.26253
C         -0.02115        -2.83397         0.08584
C          1.19186        -3.53410        -0.08865
C          2.44257        -2.80542        -0.21000
C          3.67313        -3.51777        -0.35868
C          4.87783        -2.82577        -0.41151
C          6.12725        -3.56232        -0.71296
C          7.44015        -2.82197        -0.63517
C          8.67863        -3.60292        -0.41790
C          9.88850        -2.86249        -0.23468
C         -8.56233        -4.94065        -0.59085
C         -7.39749        -5.68782        -0.26942
C         -6.23856        -4.98405         0.13076
C         -5.03276        -5.73879         0.51238
C         -3.71898        -4.98799         0.61803
C         -2.46008        -5.73994         0.53679
C         -1.22912        -5.00145         0.37664
C         -0.00297        -5.66694         0.31230
C          1.21766        -4.97338        -0.00800
C          2.40937        -5.69503        -0.19563
C          3.62858        -4.98413        -0.72852
C          4.92532        -5.71486        -0.45614
C          6.13747        -5.02748        -0.53863
C          7.38819        -5.72124        -0.46629
C          8.62651        -4.98791        -0.42626
C         -7.34346        -7.12069        -0.38472
C         -6.17400        -7.84660        -0.15422
C         -4.96809        -7.17881         0.25870
C         -3.74455        -7.85417         0.35178
C         -2.51077        -7.13421         0.55801
C         -1.26198        -7.89339         0.69546
C          0.05843        -7.10887         0.57744
C          1.26913        -7.84881         0.21930
C          2.44516        -7.12603        -0.08420
C          3.67975        -7.84091        -0.21289
C          4.91778        -7.12888        -0.33327
C          6.15805        -7.83872        -0.31637
C          7.37066        -7.12683        -0.37804
C         -6.10960        -9.27933        -0.32660
C         -4.93519        -9.95974        -0.17563
C         -3.69464        -9.28718         0.12874
C         -2.48666        -9.98113         0.14080
C         -1.23215        -9.33179         0.36686
C         -0.00873        -9.97961         0.26239
C          1.24791        -9.27441         0.21670
C          2.46849        -9.96165         0.04391
C          3.68325        -9.26223        -0.11139
C          4.94428        -9.95569        -0.16230
C          6.12729        -9.27550        -0.24335
O          3.75234         8.37995        -1.66836
O         -1.94109         5.33954         2.33480
O         -4.48838        -5.25556         1.81012
O         -1.21389         9.20602         1.05423
O         -4.86466         1.98023         2.07393
O         -5.13881         6.03405         2.37709
H         -5.02778         5.17685         2.84132
O          1.04415        -0.56789        -1.88399
H          1.15007        -1.47928        -2.23312
O         -3.77295        -3.82454        -1.41823
H         -3.78246        -2.94513        -1.85285
O          6.79371        -3.09089        -1.93850
O         -9.78653        -1.35758         0.95400
O         -0.49280        -7.51987         1.87838
O          1.67600         8.39798         1.91155
H          1.46392         7.61713         2.48184
O          8.62651         0.56639         1.97087
H          8.63619         1.48295         2.32067
O          3.47522        -5.00202        -2.19745
H          4.28577        -4.59891        -2.57798
O         -3.95385         0.96363        -1.33177
H         -3.16440         0.61395        -1.79766
O          0.53379         5.90426         2.52728
H         -0.31435         5.92115         3.03833
H         12.05858        -1.27338        -0.06619
H         12.07833         1.18490         0.01902
H         10.83714         3.33239        -0.05817
H          9.61424         5.47983         0.09590
H          8.37038         7.64889         0.05623
H          7.11224         9.80825         0.08809
H          5.01359        11.06598        -0.14488
H          2.39203        10.94673        -1.05030
H          0.10589        10.45872        -1.76774
H         -2.68449        10.73956        -1.50766
H         -4.88649        10.69667        -1.38091
H         -7.02723         9.51106        -1.10513
H         -8.26604         7.57692        -0.47732
H         -9.56881         5.47419        -0.24205
H        -10.77335         3.31828        -0.38824
H        -11.83967         1.34121        -0.93519
H        -12.03974        -0.96101        -1.46922
H        -10.31339        -3.25859        -1.77207
H         -9.43246        -5.47119        -1.00571
H         -8.25396        -7.65637        -0.69344
H         -7.03061        -9.81853        -0.59306
H         -4.91082       -11.05017        -0.32073
H         -2.48786       -11.06119        -0.07236
H          0.00731       -11.06649         0.08827
H          2.47787       -11.06173         0.06189
H          4.94086       -11.05412        -0.10397
H          7.08133        -9.82282        -0.25468
H          8.32242        -7.67821        -0.34988
H          9.56049        -5.55973        -0.31474
H         10.84603        -3.40480        -0.21112
