         334
 CSIRO Nanostructure Databank - Neutral Graphene Oxide Data Set
C         30.42602        57.35630         0.79727
C         30.42848        58.78853         0.71948
C         29.19568        59.48615         0.66462
C         30.36998        61.53321         0.14611
C         29.17791        60.85008         0.39673
C         32.85117        52.96095         0.87570
C         32.82579        54.44860         1.17066
C         31.56463        55.10547         0.57275
C         32.83211        57.29506         0.60455
C         31.58430        56.61246         0.68584
C         32.86254        58.71435         0.65282
C         31.66012        59.50381         0.60874
C         32.77459        61.67866        -0.18401
C         31.63546        60.90828         0.25708
C         35.24414        48.60309         0.22222
C         35.23026        50.09642         0.49636
C         34.05562        50.80861         0.59503
C         35.29993        52.97978         0.85074
C         34.01044        52.24602         0.79063
C         35.29505        54.43875         0.57474
C         34.09482        55.15887         0.73694
C         35.27932        57.27607         0.27056
C         34.07957        56.57687         0.54373
C         35.32349        58.69164         0.28248
C         34.14105        59.31869         0.72360
C         35.33110        61.69022        -0.43198
C         34.09933        61.38312         0.16305
C         37.74764        44.34584         0.54350
C         37.71813        45.77200         0.60843
C         36.51268        46.44904         0.69843
C         37.74904        48.63058         0.63893
C         36.43798        47.92750         0.92890
C         37.71611        50.05681         0.59438
C         36.51156        50.74841         0.57039
C         37.77550        52.89281         0.14056
C         36.56607        52.22196         0.68703
C         37.63807        54.30100        -0.28829
C         36.46413        55.06323         0.11670
C         37.63835        57.24445        -0.59913
C         36.59921        56.55681         0.29138
C         37.71690        58.73508        -0.31019
C         36.53376        59.45297        -0.02874
C         37.75306        61.53322        -0.48576
C         36.52225        60.89512        -0.24055
C         40.21306        40.15607         0.86536
C         40.17394        41.47558         0.49247
C         38.95966        42.21751         0.52044
C         40.20600        44.35703         0.32740
C         38.94933        43.62655         0.44187
C         40.17490        45.78347         0.38416
C         38.98599        46.49608         0.55792
C         40.21804        48.69196         0.54890
C         38.96844        47.94550         0.60060
C         40.24481        50.06942         0.51987
C         38.98658        50.85040         0.79840
C         40.23865        52.84564        -0.24016
C         38.95200        52.20672         0.12069
C         40.23827        54.31989        -0.54036
C         38.94917        55.07910        -0.60445
C         40.19526        57.21625        -0.60171
C         38.96896        56.52683        -0.47759
C         40.18083        58.67478        -0.72541
C         38.95158        59.39590        -0.52286
C         40.21877        61.51201        -0.60447
C         38.97623        60.83192        -0.52897
C         42.61251        35.79847         0.44426
C         42.64527        37.28100         0.74466
C         41.50180        37.98788         0.73073
C         42.74168        40.12113         0.68350
C         41.48851        39.42792         1.17764
C         42.70284        41.46108         0.33521
C         41.41260        42.16539        -0.02364
C         42.67845        44.33891         0.23024
C         41.42804        43.65976         0.21911
C         42.71354        45.76972         0.25725
C         41.43191        46.54624         0.05127
C         42.76258        48.63397         0.47196
C         41.48184        47.88713         0.76601
C         42.74139        50.08984         0.65290
C         41.48215        50.82667         0.44926
C         42.75605        52.91331        -0.08002
C         41.51020        52.19025         0.18061
C         42.74497        54.34171        -0.38532
C         41.46719        55.09395        -0.07742
C         42.63198        57.15811        -1.04712
C         41.41949        56.51672        -0.56436
C         42.60994        58.65869        -1.29599
C         41.37648        59.37752        -0.92027
C         42.68385        61.46998        -0.68534
C         41.41707        60.80740        -0.76269
C         44.78900        33.81226        -1.96580
C         43.66856        34.29666        -1.28756
C         45.02980        36.00049        -0.20816
C         43.79046        35.37231        -0.39337
C         45.22028        37.09123         0.83915
C         43.94932        37.93358         1.21548
C         45.18927        40.03099         0.49344
C         43.99182        39.39330         0.75372
C         45.19301        41.43143        -0.07768
C         43.92588        42.20123         0.19417
C         45.19093        44.33256         0.50230
C         43.91088        43.58501         0.21716
C         45.15047        45.73381        -0.05574
C         43.90616        46.48754         0.17487
C         45.21925        48.64522         0.10414
C         43.93212        47.93726         0.21754
C         45.23983        50.05174         0.10698
C         44.04559        50.84643         0.36892
C         45.13947        52.80408        -0.87387
C         43.96307        52.22260        -0.11899
C         45.19066        54.31304        -0.79768
C         43.92121        55.03077        -0.69107
C         45.11430        57.17865        -1.05790
C         43.92863        56.46064        -0.90852
C         45.16298        58.61567        -1.08667
C         43.92711        59.42382        -1.46291
C         45.12106        61.43469        -0.56584
C         43.89527        60.80128        -0.83749
C         46.04242        34.36973        -1.72377
C         47.49137        36.00039        -0.54436
C         46.18017        35.45594        -0.83692
C         47.62556        37.20117         0.10251
C         46.44093        37.92359         0.50144
C         47.69350        40.03738         0.26326
C         46.44749        39.31381         0.45777
C         47.70272        41.46208         0.19216
C         46.46882        42.19891         0.17445
C         47.70863        44.31699         0.16468
C         46.46833        43.58136         0.20208
C         47.72813        45.72866         0.07672
C         46.46544        46.47449        -0.14384
C         47.74005        48.63089         0.22893
C         46.43447        47.91579         0.01383
C         47.65344        49.99037        -0.48027
C         46.52799        50.82807         0.12554
C         47.64699        52.82869        -0.73208
C         46.46986        52.18722        -0.52514
C         47.68302        54.23847        -1.26900
C         46.37409        54.96714        -0.98584
C         47.68874        57.16516        -1.01354
C         46.38342        56.42927        -1.16652
C         47.62476        58.60884        -0.69519
C         46.36486        59.30088        -0.85179
C         47.54634        61.40310        -0.27484
C         46.34951        60.73578        -0.59917
C         48.97662        37.83144         0.33129
C         50.13925        40.03129         0.22006
C         48.93627        39.34020         0.25276
C         50.18149        41.45546         0.20120
C         48.93658        42.17060         0.19159
C         50.18478        44.29632         0.09766
C         48.94791        43.59653         0.15627
C         50.19554        45.71372         0.00665
C         48.95798        46.42934         0.00712
C         50.17136        48.52940        -0.36191
C         48.97803        47.85442        -0.14746
C         50.17484        49.96202        -0.84928
C         48.94459        50.74189        -0.49655
C         50.16905        52.84464        -0.57352
C         48.92543        52.11651        -0.58563
C         50.13954        54.28046        -0.55666
C         48.92851        54.98723        -0.79443
C         50.08610        57.10101        -0.34779
C         48.91888        56.39517        -0.69073
C         50.04791        58.55361         0.01931
C         48.77217        59.27752        -0.31367
C         49.98510        61.39899         0.09920
C         48.77112        60.71480        -0.15239
C         51.40144        42.16002         0.17802
C         52.64870        44.29670         0.08988
C         51.43426        43.57511         0.11818
C         52.67342        45.71143        -0.00996
C         51.42600        46.43000        -0.08603
C         52.65403        48.56344        -0.32345
C         51.42062        47.83437        -0.28395
C         52.67298        49.98958        -0.44794
C         51.43234        50.72339        -0.55453
C         52.66825        52.82258        -0.08116
C         51.38956        52.11408        -0.45865
C         52.62113        54.32207        -0.26646
C         51.36325        55.00760        -0.35121
C         52.56372        57.17156        -0.14999
C         51.33341        56.42468        -0.28303
C         52.55948        58.58988        -0.12998
C         51.29797        59.33768        -0.52811
C         52.41984        61.39439         0.38257
C         51.23708        60.74832         0.04946
C         53.88048        46.44310        -0.03916
C         55.10246        48.59448        -0.12410
C         53.88716        47.85339        -0.16589
C         55.11509        49.97965        -0.27517
C         53.90385        50.68183        -0.46406
C         55.14436        52.87227        -0.30634
C         53.89377        52.16780        -0.75931
C         55.13977        54.37094        -0.44940
C         53.80624        55.03831        -0.19113
C         55.00943        57.18343         0.13768
C         53.79497        56.46568        -0.07938
C         54.97801        58.58648         0.22332
C         53.75491        59.30110         0.07581
C         54.82383        61.42967         0.77439
C         53.69968        60.73990         0.35692
C         56.44243        50.70482        -0.24496
C         57.48212        52.91110         0.37153
C         56.32549        52.20143        -0.03579
C         57.47438        54.32316         0.54847
C         56.29094        55.06687         0.22146
C         57.40831        57.15466         0.84764
C         56.24898        56.45427         0.37590
C         57.40994        58.57000         0.93436
C         56.24400        59.30895         0.42694
C         57.26463        61.39858         1.50980
C         56.16231        60.84194         0.74912
C         58.60416        55.01093         1.03943
C         59.72645        57.12690         1.65938
C         58.59579        56.41937         1.18779
C         59.69913        58.52637         1.82596
C         58.52437        59.26470         1.44685
C         59.57631        61.31423         2.33477
C         58.45253        60.68422         1.72337
C         60.80643        59.22377         2.38524
C         60.73229        60.59463         2.63004
O         38.06346        54.58541        -1.67295
O         45.73856        45.95208        -1.35576
O         51.27127        59.42303        -1.90299
O         47.17258        56.84388        -2.35773
O         43.54308        50.62259         1.75396
O         42.42459        57.73731        -2.41699
O         56.55372        60.30460        -0.56940
O         36.14632        52.68321         2.04226
O         40.38982        53.37619        -1.61727
O         34.22533        60.56724         1.31780
O         57.30747        50.11870         0.73552
H         56.88880        50.22679         1.61386
O         45.20446        44.53996         1.95830
H         45.04785        43.67365         2.39042
O         50.22457        58.62929         1.46969
H         49.50290        58.11800         1.89188
O         41.50903        47.59930         2.19459
H         41.58875        48.45214         2.67283
O         31.47092        54.78482        -0.82027
H         31.60816        53.82028        -0.92529
O         47.90118        48.82145         1.68058
H         47.95229        47.93179         2.09087
O         45.57607        36.33751         2.05314
H         46.40090        35.84481         1.84951
O         49.45494        37.44529         1.64048
H         48.88543        37.87956         2.30865
O         45.18658        41.22425        -1.54310
H         44.40222        40.67420        -1.75499
O         46.77375        51.14310         1.52296
H         46.97253        50.30087         1.99858
O         39.04987        51.13390         2.23975
H         38.20201        51.56184         2.49457
O         41.32933        55.11365         1.38705
H         42.12412        55.54602         1.76393
O         41.33479        42.02955        -1.49453
H         42.11115        42.49833        -1.86973
O         53.76902        52.32486        -2.19740
H         54.16260        53.20235        -2.43181
O         50.10372        49.81219        -2.33624
H         50.36847        50.67293        -2.72911
O         35.32264        48.39226        -1.19375
H         36.15008        48.80161        -1.52146
O         37.11348        56.68739         1.66507
H         36.44191        56.31286         2.27416
O         52.86012        52.60324         1.35132
H         52.07256        52.95347         1.81798
O         47.30279        49.71823        -1.85961
H         48.14153        49.53533        -2.34858
O         41.37915        35.41407        -0.16076
H         41.32024        35.84086        -1.03963
O         32.71575        54.60677         2.61621
H         33.46081        54.11976         3.02792
O         47.76991        54.15175        -2.72354
H         47.71982        55.08309        -3.05371
O         36.17491        48.11558         2.35975
H         36.93713        47.74648         2.85386
O         44.90203        52.47893        -2.28355
H         45.68072        52.80082        -2.79061
O         55.34590        54.59508        -1.91798
H         56.28991        54.40540        -2.11023
O         37.22230        57.15480        -1.98611
H         37.40042        56.22780        -2.28315
O         41.36287        46.84745        -1.37455
H         41.35104        45.99936        -1.86544
O         41.54983        39.43830         2.63921
H         42.34887        38.91183         2.89946
O         43.88147        38.01563         2.66601
H         44.38126        37.24369         3.02408
O         44.07158        59.68215        -2.88961
H         43.75531        58.87113        -3.35159
H         29.45469        56.84328         0.86994
H         28.25544        58.93017         0.78845
H         30.33134        62.59596        -0.13410
H         28.22056        61.38583         0.33341
H         31.88570        52.42929         0.84917
H         30.66260        54.69661         1.11408
H         32.57627        62.51734        -0.86888
H         34.29292        48.13478         0.57380
H         33.09569        50.27323         0.53295
H         35.40428        62.54892        -1.11651
H         36.79641        43.79560         0.60277
H         35.57494        45.87381         0.73872
H         37.76572        62.62439        -0.62485
H         39.27950        39.66811         1.18966
H         38.01865        41.68933         0.73940
H         40.23880        62.60931        -0.53240
H         42.67280        35.24908         1.42580
H         40.55568        37.48768         0.46811
H         42.69466        62.53520        -0.40633
H         44.68693        32.96828        -2.66199
H         42.68429        33.82820        -1.42799
H         45.11786        62.48413        -0.23263
H         46.93560        33.96183        -2.21797
H         48.37860        35.47601        -0.92931
H         47.52374        62.49250        -0.12056
H         49.71605        37.42637        -0.40467
H         51.08466        39.46892         0.21601
H         49.94814        62.48309         0.29590
H         52.34768        41.59905         0.19305
H         53.60066        43.74638         0.13015
H         52.38559        62.44152         0.72717
H         54.83828        45.90823         0.04612
H         56.05299        48.06315         0.03175
H         54.71523        62.45484         1.16116
H         56.94951        50.54929        -1.23868
H         58.39888        52.34527         0.59076
H         57.14631        62.39544         1.96112
H         59.51060        54.44575         1.30089
H         60.63548        56.56938         1.93004
H         59.52761        62.39032         2.55443
H         61.71467        58.66352         2.64945
H         61.59198        61.11230         3.07864
