         314
 CSIRO Nanostructure Databank - Neutral Graphene Oxide Data Set
C         30.57025        57.06411        -0.19065
C         30.52268        58.38691         0.24104
C         29.52944        58.85359         1.13431
C         30.63595        61.02042         1.37039
C         29.57439        60.15379         1.64939
C         32.97824        52.99119        -1.06793
C         32.70234        54.23948        -1.59656
C         31.68037        55.13429        -1.11975
C         32.60946        57.53169        -1.46158
C         31.60766        56.54091        -1.03849
C         32.75408        58.75755        -0.85549
C         31.48744        59.39884        -0.33323
C         32.83383        61.39900         0.34009
C         31.68855        60.63057         0.50916
C         35.40712        48.69877        -0.75019
C         35.41987        50.08561        -0.99012
C         34.25901        50.87642        -1.05120
C         35.49399        52.99449        -1.25923
C         34.25861        52.29804        -1.21996
C         35.61103        54.43746        -1.28380
C         34.63828        55.21673        -1.92744
C         35.54116        57.30537        -1.04454
C         34.62583        56.60509        -1.83061
C         35.39094        58.76432        -0.83719
C         34.03983        59.51479        -0.85307
C         35.21323        61.60426        -0.14201
C         34.03626        60.87912        -0.23260
C         37.68107        44.25255        -0.21416
C         37.41380        45.52582        -0.73663
C         36.42135        46.48622        -0.46050
C         37.87355        48.54854        -0.70361
C         36.58683        47.89024        -0.71920
C         37.92655        49.99541        -0.64254
C         36.73600        50.74393        -1.12793
C         37.97953        52.95252        -0.66580
C         36.76454        52.24278        -1.20137
C         37.94063        54.41773        -0.39388
C         36.70436        55.16342        -0.71806
C         37.79900        57.28814         0.00976
C         36.66631        56.56831        -0.55301
C         37.81509        58.67144         0.04658
C         36.53040        59.40677        -0.10054
C         37.79756        61.57418         0.03579
C         36.50608        60.91503         0.03022
C         40.17688        40.07873        -0.11639
C         40.19216        41.46193         0.02016
C         38.99382        42.21269        -0.14191
C         40.26087        44.30071        -0.25328
C         38.97378        43.60767        -0.26829
C         40.35763        45.71780        -0.38749
C         39.28830        46.51064        -0.86850
C         40.29478        48.54180        -0.06484
C         39.12709        47.87028        -0.53231
C         40.20149        49.94456         0.44820
C         39.03902        50.66845        -0.19116
C         40.18555        52.81045         0.65499
C         38.98394        52.12605         0.07296
C         40.18001        54.30249         0.87102
C         38.90342        55.04438         0.56827
C         40.13240        57.27418         1.20517
C         38.88546        56.53568         0.69236
C         40.17246        58.73056         0.77849
C         38.99878        59.40447         0.43082
C         40.19582        61.56539         0.41855
C         38.99537        60.86781         0.28448
C         42.81378        36.01339        -1.03962
C         42.73422        37.28984        -0.42344
C         41.49632        37.94351        -0.37227
C         42.62126        39.99599         0.68896
C         41.33841        39.26427         0.21024
C         42.61880        41.47562         0.59879
C         41.43712        42.17186         0.27369
C         42.68235        44.29506         0.36794
C         41.45064        43.59460         0.12649
C         42.72875        45.72330         0.26822
C         41.54645        46.42744        -0.03662
C         42.73984        48.60692         0.13838
C         41.50790        47.86038         0.03116
C         42.72226        50.01167         0.13502
C         41.50317        50.73046         0.34085
C         42.72086        52.89698         0.52676
C         41.48957        52.10323         0.57618
C         42.70962        54.31310         0.66907
C         41.47785        55.05955         0.97552
C         42.63811        57.24809         1.07016
C         41.45027        56.55003         0.93080
C         42.62020        58.72180         1.10849
C         41.41889        59.41434         0.92186
C         42.67383        61.49913         0.29731
C         41.44217        60.92945         0.94447
C         45.35941        33.49593        -2.10573
C         44.12628        34.10086        -1.89611
C         45.24665        35.99981        -0.78867
C         44.04484        35.36623        -1.24505
C         45.16961        37.24184        -0.10385
C         43.94639        37.92324         0.06175
C         45.07481        39.97002         0.90699
C         43.92403        39.28272         0.56198
C         44.95198        41.37235         1.51133
C         43.82555        42.17734         0.87510
C         45.04090        44.35089         1.21001
C         43.83945        43.57456         0.80247
C         45.14433        45.76368         0.80685
C         43.95766        46.46828         0.41120
C         45.21581        48.60119         0.23069
C         43.96715        47.86714         0.20622
C         45.23135        49.99042         0.17769
C         43.97751        50.77198        -0.20317
C         45.17143        53.00284         0.16975
C         43.93293        52.22284         0.24750
C         45.20960        54.42770         0.49952
C         43.90897        55.16116         0.28730
C         45.06519        56.93684         1.54699
C         43.88889        56.48790         1.00122
C         45.03138        59.06404         1.61442
C         43.85284        59.50212         1.06747
C         45.13726        61.42261         0.14811
C         43.87155        60.82983         0.44490
C         46.54284        34.11637        -1.68871
C         47.71848        36.01842        -0.64791
C         46.51603        35.36612        -1.02525
C         47.70660        37.24864         0.03765
C         46.40337        37.79873         0.47093
C         47.63157        39.97068         1.03448
C         46.35838        39.24543         1.00415
C         47.62848        41.38492         1.41991
C         46.31640        42.10142         1.61088
C         47.62026        44.30486         1.31295
C         46.33313        43.60820         1.54091
C         47.60712        45.68666         1.10600
C         46.37813        46.42068         0.89426
C         47.63803        48.25010        -0.06607
C         46.43049        47.79514         0.41606
C         47.75668        50.33887        -0.09589
C         46.47120        50.76021         0.57539
C         47.66467        52.93747         0.85139
C         46.47022        52.25072         0.35715
C         47.66471        54.32775         0.93761
C         46.40724        55.05348         0.83197
C         47.57674        57.20584         1.35058
C         46.39259        56.44875         1.23864
C         47.63522        58.72435         1.40119
C         46.35961        59.63027         1.38120
C         47.58972        61.41960         0.18004
C         46.36824        60.86971         0.56626
C         48.87887        37.95909         0.31669
C         50.07942        40.03253         0.88666
C         48.85704        39.31313         0.78164
C         50.13664        41.42982         1.13380
C         48.88617        42.16271         1.29581
C         50.15682        44.26872         1.42617
C         48.86287        43.54499         1.33089
C         50.16346        45.67068         0.91724
C         48.89165        46.43658         1.06847
C         50.21233        48.52145         0.12277
C         48.92567        47.81738         0.46597
C         50.21877        50.07828         0.13480
C         48.94488        50.81605         0.34957
C         50.17182        52.83955         1.31289
C         48.88511        52.11680         1.07670
C         50.14409        54.34082         1.43895
C         48.86833        55.08331         1.16861
C         50.11723        57.22399         1.29587
C         48.82520        56.48065         1.23636
C         50.13872        58.70918         1.05422
C         48.85520        59.39670         0.87969
C         50.01596        61.41120         0.01315
C         48.83596        60.74345         0.40365
C         51.37111        42.09156         1.09562
C         52.71828        44.28244         1.02042
C         51.48238        43.52387         1.32791
C         52.73498        45.65140         0.82426
C         51.45071        46.36756         0.59560
C         52.65720        48.54748         0.54502
C         51.46981        47.84286         0.46889
C         52.64319        49.99619         0.62579
C         51.46804        50.71594         0.56598
C         52.70251        52.94520         0.85271
C         51.42579        52.19621         0.78260
C         52.81585        54.36506         1.39944
C         51.45419        55.07671         1.40240
C         52.52770        57.12327         0.24628
C         51.33510        56.46307         0.84872
C         52.58645        58.60753         0.17307
C         51.42769        59.38632         0.65269
C         52.50959        61.39812        -0.52210
C         51.35034        60.84915         0.17914
C         53.93416        46.42287         0.73110
C         55.14937        48.55161         0.52668
C         53.93477        47.82558         0.62568
C         55.19694        49.96518         0.56242
C         53.93911        50.67831         0.89104
C         55.19856        52.90064         0.56532
C         53.97787        52.17366         0.95359
C         55.13345        54.28680         0.34375
C         53.90905        55.05409         0.59494
C         54.90787        56.97402        -0.57432
C         53.79569        56.34417         0.16172
C         54.85440        58.46863        -0.83593
C         53.68797        59.24879        -0.34739
C         54.90774        61.30051        -1.07265
C         53.69067        60.68078        -0.61700
C         56.36645        50.71077         0.37664
C         57.56096        52.84920        -0.04450
C         56.39170        52.14806         0.31915
C         57.53154        54.24183        -0.28354
C         56.29541        54.95777        -0.14798
C         57.36557        57.01866        -0.97420
C         56.22513        56.32079        -0.54494
C         57.29772        58.43056        -1.27185
C         56.12991        59.15536        -1.10036
C         57.33265        61.29007        -1.49538
C         56.10119        60.60656        -1.23501
C         58.69137        54.96864        -0.68131
C         59.83619        57.07642        -1.25203
C         58.63561        56.32893        -0.99111
C         59.81601        58.42586        -1.55625
C         58.50509        59.10285        -1.88429
C         59.76627        61.27761        -1.79307
C         58.52805        60.60300        -1.67454
C         61.01082        59.18523        -1.67352
C         60.97536        60.57110        -1.82821
O         36.99676        51.42552        -2.40662
O         33.57414        54.65404        -2.63446
O         46.04422        52.63044        -0.99235
O         49.52065        52.13428         2.40478
O         38.28545        55.65353         1.72802
O         51.46676        56.50909        -0.61030
O         50.27701        49.29620        -1.09649
O         36.24114        59.96902         1.20804
O         39.09746        52.30524         1.54320
O         51.97743        52.89369        -0.41089
O         54.51078        57.49841        -1.89123
O         48.88732        47.60290         1.93932
O         40.72737        54.58799         2.18786
O         38.36025        45.93250        -1.71841
O         47.03025        41.61734         2.79012
O         47.65936        49.28321        -1.00966
O         41.73015        39.40011         1.64188
O         45.00044        57.97949         2.48888
O         51.72847        60.46189         1.57117
O         46.31745        38.07461         1.89771
O         54.03132        51.38057         2.18675
O         50.77768        54.87496         2.66849
O         50.89484        43.99988         2.63400
O         50.63429        45.72558        -0.47521
O         33.54406        57.21594        -2.46555
O         45.49197        44.16580         2.59796
O         47.19030        59.49899         2.57040
O         38.62251        53.89082        -1.59774
O         50.28338        58.10667         2.42415
O         34.91773        59.47591        -2.02164
O         39.90222        49.79512         1.87493
H         39.62827        50.68857         2.20336
O         43.80859        55.42643        -1.15986
H         43.99567        54.58521        -1.62959
O         44.01564        50.84155        -1.68431
H         44.82178        51.36670        -1.90931
O         46.64963        50.56915         2.00587
H         46.74254        49.61002         2.19166
O         30.81971        59.92121        -1.54212
H         30.63944        59.16054        -2.13508
O         41.50669        61.31670         2.37461
H         40.89147        60.73074         2.86626
O         40.03566        57.32600         2.65537
H         39.88398        56.39585         2.95121
O         53.29129        54.30819         2.75391
H         52.50299        54.26074         3.34365
O         44.50350        41.15950         2.87020
H         45.30783        40.98812         3.41377
O         58.34740        58.91819        -3.33704
H         57.45686        59.25027        -3.58018
H         29.82193        56.35817         0.20328
H         28.73358        58.16625         1.45723
H         30.69825        61.98916         1.88765
H         28.78742        60.47950         2.34420
H         32.23916        52.51978        -0.40093
H         30.90731        54.61970        -0.52195
H         32.89667        62.37428         0.84873
H         34.43466        48.19517        -0.63972
H         33.28557        50.37571        -0.93744
H         35.16316        62.65397         0.18919
H         36.87394        43.70035         0.29104
H         35.47922        46.16394         0.00823
H         37.84439        62.65568        -0.15878
H         39.27643        39.58118        -0.50659
H         38.04231        41.66218        -0.18200
H         40.18189        62.66416         0.35008
H         41.88616        35.53352        -1.38559
H         40.63781        37.50351        -0.90171
H         42.64299        62.51079        -0.13278
H         45.40938        32.52131        -2.61124
H         43.20173        33.61080        -2.23287
H         45.15387        62.38190        -0.39034
H         47.51107        33.62946        -1.87345
H         48.68291        35.56387        -0.91877
H         47.60321        62.37227        -0.36904
H         49.84945        37.51378         0.05302
H         51.02209        39.49211         0.71639
H         49.92391        62.38960        -0.48103
H         52.27028        41.52893         0.80397
H         53.67226        43.73526         1.07142
H         52.45619        62.42485        -0.91316
H         54.89884        45.89825         0.80222
H         56.09083        47.98976         0.42831
H         54.90266        62.39037        -1.22344
H         57.30565        50.17434         0.17111
H         58.50053        52.29716        -0.19480
H         57.33642        62.39115        -1.48027
H         59.65702        54.44371        -0.73225
H         60.80388        56.56490        -1.12928
H         59.77827        62.37781        -1.79212
H         61.97920        58.67163        -1.57923
H         61.91961        61.12866        -1.90287
