         429
 CSIRO Nanostructure Databank - Neutral Graphene Oxide Data Set
C          1.17898         3.44569        -0.43398
C         -0.00488         4.14383        -0.56687
C          1.14561         6.27236        -0.18908
C         -0.01863         5.54746        -0.46471
C          1.14495         7.73903        -0.17782
C          0.00613         8.48736        -0.53526
C          1.18516        10.58430        -0.15049
C          0.01909         9.87792        -0.48786
C          1.17910        12.04285         0.00352
C         -0.04478        12.73971         0.15905
C          1.13476        14.86139         0.32530
C         -0.06657        14.11281         0.29572
C          1.12787        16.30573         0.37735
C         -0.08228        17.03512         0.26624
C          1.12752        19.14781         0.26872
C         -0.08375        18.41157         0.19530
C          1.14089        20.59041         0.07878
C         -0.05120        21.32674        -0.01294
C          1.16734        23.36957        -0.60151
C         -0.04224        22.67651        -0.32770
C          1.12784        24.81362        -0.82012
C         -0.03635        25.53344        -0.88796
C          1.04392        27.68537        -0.44485
C         -0.05536        26.97603        -0.83488
C          1.01034        29.12349        -0.06817
C         -0.16620        29.94086        -0.39393
C          1.10593        32.03934        -0.17890
C         -0.11774        31.29642        -0.38256
C          1.11796        33.47388        -0.24909
C         -0.08020        34.23396        -0.36781
C          1.17432        36.31248        -0.50127
C         -0.05377        35.60991        -0.48772
C          1.21416        37.73946        -0.68390
C          3.61936         3.45579        -0.08329
C          2.38613         4.14071        -0.14462
C          3.57177         6.23168         0.42844
C          2.36857         5.56080         0.02783
C          3.49278         7.69194         0.67532
C          2.32463         8.43656         0.16894
C          3.63295        10.56000         0.26171
C          2.37367         9.85218         0.12292
C          3.65903        11.98388        -0.26334
C          2.38889        12.75369         0.06837
C          3.59598        14.92123         0.40153
C          2.37865        14.16743         0.25371
C          3.60262        16.30301         0.57131
C          2.35259        17.02825         0.48654
C          3.59107        19.23608         0.71052
C          2.33547        18.44441         0.44567
C          3.59820        20.56719         0.00323
C          2.39368        21.26875        -0.15404
C          3.67947        23.35696        -0.71272
C          2.38164        22.65849        -0.53791
C          3.70203        24.86319        -0.82066
C          2.39539        25.62899        -0.99092
C          3.57984        27.65064         0.06860
C          2.30612        26.92890        -0.21159
C          3.61284        29.14391        -0.20429
C          2.31848        29.86571         0.15320
C          3.55166        32.03078         0.09928
C          2.32221        31.34197         0.00193
C          3.59177        33.44367        -0.03824
C          2.36718        34.16554        -0.21297
C          3.63765        36.28255        -0.38683
C          2.38730        35.58792        -0.34931
C          3.65946        37.73555        -0.54054
C          2.39621        38.41883        -0.71289
C          6.05952         3.46590        -0.00193
C          4.81267         4.13627         0.19069
C          6.04467         6.19517         0.96462
C          4.77524         5.53003         0.55032
C          6.06385         7.70528         1.04580
C          4.77165         8.46837         0.93066
C          6.08728        10.59064         0.63333
C          4.80592         9.89945         0.55973
C          6.12308        11.97382         0.55455
C          4.93095        12.73288         0.11274
C          6.01875        14.83779         1.14948
C          4.89176        14.20192         0.36908
C          6.10842        16.32165         0.85780
C          4.86595        17.04252         0.69191
C          6.10450        19.17333         0.52335
C          4.86404        18.43544         0.57893
C          6.10956        20.48353         0.11596
C          4.89666        21.15170        -0.47584
C          6.11853        23.38875        -0.22167
C          4.92798        22.66440        -0.33757
C          6.13988        24.83083        -0.21693
C          4.91904        25.58578        -0.35345
C          6.05332        27.60768         0.63047
C          4.87417        26.93064        -0.03362
C          6.06349        29.14030         0.46943
C          4.86019        29.82361         0.31424
C          6.09805        32.05978         0.49576
C          4.78080        31.28821         0.47140
C          6.09389        33.48407         0.09489
C          4.84323        34.16057        -0.07756
C          6.10698        36.29781        -0.63919
C          4.83521        35.56305        -0.29742
C          6.12516        37.72995        -0.11202
C          4.84025        38.43628        -0.46146
C          8.47946         3.48455        -0.26074
C          7.28548         4.11291         0.12233
C          8.55025         6.28160         0.39377
C          7.37855         5.42924         0.86139
C          8.54132         7.69815         0.54105
C          7.33151         8.43406         0.78862
C          8.56839        10.55964         0.66810
C          7.32323         9.83386         0.73677
C          8.58741        11.97360         0.81982
C          7.34026        12.71600         0.81625
C          8.55464        14.83158         1.29336
C          7.31898        14.09107         0.98899
C          8.57588        16.29712         1.10302
C          7.33873        16.98324         0.93296
C          8.65800        19.08134         0.57757
C          7.35356        18.49197         1.04228
C          8.66673        20.46795         0.07113
C          7.37583        21.21132        -0.13461
C          8.59692        23.37163        -0.06367
C          7.38506        22.68750        -0.11227
C          8.63705        24.82543         0.00304
C          7.36845        25.54518        -0.02192
C          8.58672        27.60673         0.60316
C          7.34649        26.91861         0.26007
C          8.55366        29.10773         0.84933
C          7.30168        29.85278         0.60820
C          8.55032        31.98397         0.36860
C          7.35541        31.27657         0.43405
C          8.57147        33.45719         0.28902
C          7.31647        34.18150         0.02314
C          8.58193        36.26433        -0.46117
C          7.37711        35.56653        -0.28098
C          8.56127        37.70333        -0.71903
C          7.37732        38.42001        -0.58657
C         10.90723         3.51695        -0.58120
C          9.71819         4.17842        -0.26005
C         10.93632         6.33798        -0.23316
C          9.72394         5.61357        -0.00891
C         10.92799         7.74127        -0.05239
C          9.75443         8.42615         0.31774
C         11.01486        10.58423         0.42485
C          9.78483         9.85981         0.47139
C         11.03328        11.95653         0.74219
C          9.82709        12.64315         0.94577
C         11.13425        14.82107         1.12352
C          9.85993        14.07699         1.28648
C         11.07193        16.26989         1.11867
C          9.83578        16.96657         1.06654
C         11.11468        19.10979         0.76111
C          9.84216        18.40439         0.78314
C         11.12710        20.62333         0.76134
C          9.87481        21.26895         0.22908
C         11.10812        23.37147        -0.10189
C          9.83458        22.62686         0.07541
C         11.13819        24.78626         0.40686
C          9.84183        25.51973         0.16486
C         11.09175        27.65328         0.30249
C          9.88086        26.94350         0.33100
C         11.13198        29.09777         0.47460
C          9.88112        29.82536         0.83462
C         11.07524        31.99601         0.19212
C          9.85174        31.33519         0.58705
C         11.02930        33.30205        -0.53586
C          9.87007        34.16001        -0.05433
C         11.01171        36.21049        -0.88510
C          9.84019        35.56976        -0.51189
C         11.01442        37.65122        -1.04914
C          9.79556        38.35495        -0.99822
C         13.36435         3.52043        -0.88340
C         12.15224         4.20575        -0.65863
C         13.40366         6.31817        -0.60727
C         12.15740         5.63453        -0.53737
C         13.40674         7.79220        -0.70288
C         12.11931         8.52757        -0.40887
C         13.42685        10.61740        -0.19623
C         12.23506         9.92994         0.00183
C         13.43190        12.09237         0.02278
C         12.37318        12.61958         0.99203
C         13.64579        14.83646         1.18163
C         12.32016        14.13122         1.00666
C         13.53704        16.31438         0.93460
C         12.32887        16.98628         1.00193
C         13.54695        19.24073         1.28717
C         12.29873        18.44237         0.94069
C         13.66392        20.49598         0.42235
C         12.38099        21.15864         0.06125
C         13.70463        23.35609        -0.22017
C         12.38438        22.62165        -0.26215
C         13.66344        24.85777        -0.18759
C         12.36727        25.56423        -0.00044
C         13.60207        27.67453        -0.16608
C         12.33916        26.92852         0.07296
C         13.57217        29.16199        -0.04917
C         12.30873        29.81843         0.35598
C         13.61518        32.04538         0.14546
C         12.32890        31.29937         0.44396
C         13.52614        33.43760        -0.37662
C         12.33774        34.05958        -0.56117
C         13.53804        36.24897        -0.89899
C         12.28714        35.44523        -1.19087
C         13.48866        37.68901        -0.92634
C         12.24371        38.34748        -1.11584
C         15.83982         3.52309        -1.06239
C         14.60732         4.19752        -0.85410
C         15.89185         6.34690        -0.35281
C         14.60757         5.61603        -0.65353
C         15.89383         7.77852        -0.91201
C         14.65571         8.56212        -0.67738
C         15.86341        10.73870        -1.04544
C         14.64002         9.94212        -0.59857
C         15.96721        12.15272        -0.48900
C         14.72069        12.86462        -0.13093
C         16.02737        14.91108         0.36081
C         14.81420        14.21335         0.44421
C         16.07616        16.31030         0.63053
C         14.77839        17.07697         0.55476
C         16.12451        19.17383         1.12356
C         14.84233        18.43362         1.22552
C         16.12738        20.64170         0.90614
C         14.92562        21.28853         0.51871
C         16.12596        23.42270         0.41939
C         14.92993        22.66940         0.25656
C         16.11729        24.87042         0.34815
C         14.90734        25.58515         0.15108
C         16.09403        27.71632         0.27281
C         14.89416        26.98121         0.07948
C         16.09836        29.16814         0.12285
C         14.86586        29.89271         0.01146
C         16.06380        32.00066        -0.46106
C         14.83991        31.27203        -0.13874
C         16.06276        33.47199        -0.42270
C         14.78823        34.10837        -0.89734
C         15.96456        36.31763        -0.50265
C         14.74491        35.59903        -0.72500
C         15.91857        37.75495        -0.52119
C         14.68303        38.41070        -0.75558
C         18.32277         3.51562        -1.30533
C         17.07846         4.22079        -1.05531
C         18.41212         6.27367        -0.63775
C         17.12358         5.58729        -0.75731
C         18.46000         7.80922        -0.70733
C         17.18234         8.53226        -0.99356
C         18.40813        10.70925        -1.10916
C         17.16056         9.98017        -0.88107
C         18.44669        12.12855        -0.71939
C         17.18567        12.79545        -0.37985
C         18.44946        14.90132        -0.02915
C         17.25032        14.20846        -0.00316
C         18.51961        16.31836         0.23671
C         17.30706        17.02816         0.60270
C         18.61868        19.12169         0.98674
C         17.35330        18.42381         0.80734
C         18.63569        20.63756         1.25154
C         17.34199        21.34113         0.89209
C         18.59009        23.48908         0.71904
C         17.34640        22.74424         0.68631
C         18.57637        24.89279         0.67707
C         17.31988        25.60318         0.55076
C         18.51695        27.78063         0.97874
C         17.29118        27.02081         0.54004
C         18.54157        29.22326         0.52116
C         17.32571        29.86290         0.17273
C         18.55934        32.08343         0.08540
C         17.38248        31.26904        -0.25132
C         18.49159        33.50130         0.04147
C         17.22794        34.18336        -0.24248
C         18.37872        36.38310        -0.04198
C         17.19067        35.64131        -0.27223
C         18.33099        37.81994        -0.07893
C         17.11233        38.47967        -0.31983
C         19.53257         4.14576        -1.27300
C         20.83201         6.25505        -1.10181
C         19.64356         5.55420        -0.98951
C         20.87648         7.68022        -1.09532
C         19.73664         8.45215        -1.03100
C         20.95170        10.69093        -0.90313
C         19.73861         9.93335        -1.22900
C         20.90266        12.03525        -0.70787
C         19.66459        12.76815        -0.62632
C         20.73803        15.02757        -0.98902
C         19.77520        14.19815        -0.17012
C         20.72624        16.37174        -0.84499
C         19.69922        17.02209        -0.05244
C         20.99121        19.24825         0.03066
C         19.87228        18.39480         0.44994
C         20.96649        20.60739         0.18202
C         19.84039        21.34897         0.65472
C         21.04396        23.52231         0.52552
C         19.83738        22.75987         0.65302
C         21.03585        24.89142         0.56160
C         19.81810        25.63841         0.66288
C         20.99694        27.83192         0.70640
C         19.81284        27.04899         0.71567
C         20.96951        29.21550         0.71373
C         19.74853        29.94686         0.57216
C         20.88815        32.18725         0.74004
C         19.74511        31.40577         0.46059
C         20.84575        33.57064         0.64920
C         19.66095        34.26110         0.30836
C         20.76399        36.50025         0.44531
C         19.62165        35.72288         0.23902
C         20.71634        37.90920         0.38934
C         19.52940        38.56328         0.13809
O         15.60888        18.60320         2.44549
O         16.46630         7.97151        -2.24119
O         13.87886        24.12726        -1.45252
O         13.63079        12.84378        -1.19513
O          5.29211        13.71667        -0.95092
O          6.02838         6.88321         2.26402
O         11.61929        23.06295        -1.43386
O         16.83266        31.47292        -1.60588
O          5.35365        31.79313         1.72616
O         19.55718        18.44803         1.89649
O         13.17200        31.89034         1.54231
O         19.03983        10.39029        -2.42620
O         18.49408         7.11879         0.59155
O         12.53512         8.27045        -1.79642
O         10.00162        30.72113         1.95570
O          8.51196        28.18370         1.99530
O          1.56784        29.37869         1.28252
O          3.89715        24.04365        -2.02128
O          9.46670        34.03370         1.32817
O          2.78007        27.06932         1.15881
O          9.19644        14.39232         2.56824
O         13.50621        28.49235        -1.38411
O         13.06591        20.31522        -0.90351
O          8.08295        20.61225        -1.29719
O          3.86184         8.14865         2.02509
O          3.67560        29.25979        -1.66823
H          4.33703        28.61897        -2.00622
O          3.53148        19.58187         2.15665
H          3.64636        18.74815         2.66160
O          5.87993        27.39977         2.07009
H          6.70351        27.73949         2.49907
O          6.19595        37.66777         1.34589
H          6.23295        38.58426         1.68986
O          2.40781        26.10555        -2.37264
H          2.68972        25.33941        -2.92430
O         14.63606        17.42041        -0.86829
H         14.45000        16.59600        -1.36649
O         14.75477        33.87821        -2.36302
H         15.21254        33.02777        -2.54887
O         15.91011         6.50552         1.10512
H         16.84201         6.73112         1.35298
O         12.26125        35.19434        -2.64453
H         13.14134        34.79604        -2.86922
O         13.99704        14.69380         2.61971
H         13.40175        15.28591         3.12748
O         12.82051        12.16015         2.30168
H         12.31162        12.64181         2.98685
O         20.35262        14.12812         1.18136
H         20.36993        15.04322         1.53650
O         18.76941        20.79326         2.69579
H         19.34753        20.05557         3.00044
O          3.66267        11.83608        -1.71516
H          4.10951        12.64034        -2.07028
O          6.10650        36.41345        -2.09878
H          6.06407        35.50967        -2.47500
O         11.25555        24.63363         1.86550
H         11.04802        25.49849         2.28005
O         18.40475        27.85168         2.45550
H         19.21167        28.30420         2.78267
O         15.70899        10.87929        -2.49721
H         15.77807         9.97356        -2.87949
O          4.95880        20.88342        -1.92256
H          5.89001        21.01081        -2.21018
O          5.64515        14.71082         2.56009
H          6.41033        15.00321         3.10014
O          7.32327        18.75617         2.49685
H          8.12035        18.33988         2.89019
O         11.17963        21.09383         2.13782
H         11.91412        20.62221         2.60727
O          7.74071         5.02732         2.21618
H          7.38318         5.72555         2.81581
O         10.72919        33.00772        -1.95161
H         11.13305        33.73954        -2.49043
O         13.38065        19.67700         2.66302
H         14.24307        19.49427         3.12161
H          1.20360         2.35293        -0.54981
H         -0.94133         3.61013        -0.78045
H         -0.97351         6.06913        -0.61174
H         -0.92286         7.98109        -0.82859
H         -0.90078        10.42090        -0.74365
H         -0.99478        12.18889         0.16408
H         -1.03691        14.61651         0.39371
H         -1.04088        16.50589         0.19111
H         -1.04153        18.93135         0.06315
H         -1.01793        20.84397         0.18161
H         -0.99920        23.21268        -0.35393
H         -1.01462        25.03301        -0.90275
H         -1.02571        27.47361        -0.97227
H         -1.10553        29.43928        -0.66674
H         -1.03744        31.84893        -0.61682
H         -1.05415        33.72760        -0.36361
H         -0.99447        36.17059        -0.58630
H          0.26220        38.27716        -0.80467
H          3.65069         2.37835        -0.30224
H          2.40747        39.51021        -0.84897
H          6.03664         2.43567        -0.38975
H          4.82615        39.53752        -0.49772
H          8.44841         2.44852        -0.63191
H          7.38991        39.51691        -0.68798
H         10.88818         2.43003        -0.75117
H          9.80424        39.44854        -1.11847
H         13.34734         2.43160        -1.03866
H         12.22851        39.44541        -1.18288
H         15.83600         2.43977        -1.25088
H         14.65862        39.51011        -0.78603
H         18.27032         2.44036        -1.52973
H         17.08857        39.57929        -0.34285
H         20.45424         3.58354        -1.48348
H         21.75937         5.70709        -1.32293
H         21.84848         8.15860        -1.28236
H         21.90170        10.15313        -0.77473
H         21.82910        12.57801        -0.47232
H         21.51438        14.53326        -1.59030
H         21.48603        16.99028        -1.34422
H         21.85869        18.78352        -0.45776
H         21.83672        21.17016        -0.18608
H         22.00968        23.00271         0.46298
H         21.99559        25.42305         0.51295
H         21.97783        27.33746         0.67508
H         21.92531        29.75630         0.71991
H         21.82864        31.70633         1.04065
H         21.76340        34.13138         0.87086
H         21.73142        36.02524         0.65533
H         21.63890        38.48286         0.55477
H         19.49111        39.66142         0.10363
