         658
 CSIRO Nanostructure Databank - Neutral Graphene Oxide Data Set
C          6.52341        31.28326        -2.07919
C          6.50210        32.64594        -2.11743
C          8.79112        27.11957        -0.75433
C          8.83798        28.46458        -1.00517
C          7.69029        29.19442        -1.48744
C          9.02439        31.30069        -1.65519
C          7.71038        30.54860        -1.71726
C          8.88272        32.78984        -1.42878
C          7.65948        33.44449        -1.75315
C          8.72934        35.60553        -1.31620
C          7.59331        34.83654        -1.68921
C          8.68401        37.01887        -1.31189
C         10.93223        22.92224         0.86592
C         10.82977        24.41779         1.01784
C          9.88398        25.07037         0.03430
C         10.83945        27.24714         0.77351
C          9.86650        26.42590        -0.07496
C         11.10607        28.65067         0.20142
C         10.16280        29.19710        -0.88652
C         11.22835        31.46750        -0.46797
C          9.91927        30.70975        -0.55023
C         11.25147        32.81367        -0.68154
C         10.01174        33.51499        -1.03782
C         11.08738        35.70531        -0.56890
C          9.95349        34.93854        -0.97892
C         10.98683        37.09918        -0.49431
C          9.80654        37.77615        -0.93800
C         10.98762        39.97533        -1.06094
C          9.83141        39.19400        -1.13560
C         10.87447        41.33198        -1.50344
C         13.42779        18.66737         1.28045
C         13.34943        20.08964         1.25443
C         12.17491        20.78748         1.01042
C         13.36183        22.96639         1.20217
C         12.11458        22.23278         0.98081
C         13.35285        24.42581         1.17674
C         12.16935        25.11901         0.99470
C         13.35644        27.26167         1.14979
C         12.18865        26.54624         0.93704
C         13.28157        28.74103         1.43337
C         12.21919        29.34751         0.51169
C         13.63103        31.49870         0.36729
C         12.43347        30.71006        -0.05038
C         13.62868        32.96921         0.21349
C         12.55279        33.59336        -0.66339
C         13.45285        35.76915         0.12259
C         12.37353        35.06049        -0.32203
C         13.33541        37.19912         0.50029
C         12.08784        37.91131         0.05188
C         13.51441        40.00759        -0.18999
C         12.16674        39.38438        -0.33013
C         13.79930        41.19941        -0.86090
C         11.99074        42.10087        -1.87033
C         13.59307        43.95486        -2.03119
C         12.23245        43.44938        -2.08809
C         13.86382        45.11175        -2.77464
C         15.82085        14.47289         1.01244
C         15.81880        15.82083         1.40710
C         14.63556        16.57101         1.35328
C         15.79355        18.63077         2.25461
C         14.59887        17.96293         1.58020
C         15.85446        20.11963         1.92142
C         14.62500        20.83043         1.41402
C         15.65946        23.08198         2.04010
C         14.52533        22.29705         1.46856
C         15.78527        24.44435         1.41229
C         14.60783        25.14691         1.20040
C         15.82082        27.32120         1.33145
C         14.62387        26.59441         1.17621
C         15.82498        28.76451         1.44429
C         14.62197        29.44633         1.37339
C         15.91949        31.62285         1.33334
C         14.57830        30.94601         1.41870
C         15.94222        33.01010         1.07787
C         14.73755        33.67800         0.56708
C         15.92260        35.90153         0.75124
C         14.81499        35.11668         0.10287
C         15.87900        37.25681         0.89092
C         14.57927        37.98781         0.83042
C         15.77817        40.22138         0.67077
C         14.60314        39.44771         0.52476
C         15.80931        41.63141         0.38480
C         14.73489        42.16693        -0.43271
C         15.36082        44.56312        -0.53777
C         14.58515        43.50624        -1.03109
C         15.68562        45.71905        -1.29456
C         15.01858        45.90867        -2.54813
C         16.56644        47.75619        -3.01366
C         15.43595        46.98083        -3.35498
C         16.85979        48.90724        -3.77817
C         18.17892        10.28583        -0.13771
C         18.21093        11.64925         0.15016
C         16.99749        12.39040         0.41751
C         18.34574        14.41765         0.99270
C         17.00877        13.72505         0.79519
C         18.21228        15.95270         0.89401
C         17.12513        16.46733         1.84361
C         18.31805        18.66434         1.92949
C         17.12497        17.97957         1.90927
C         18.37087        20.09201         2.41169
C         17.03225        20.88093         2.48973
C         17.98120        23.21745         2.55275
C         16.95752        22.35610         2.28237
C         18.29685        24.29414         1.52744
C         17.06499        25.11194         1.23603
C         18.36282        27.33747         1.61564
C         17.10966        26.64133         1.22938
C         18.33838        28.76291         1.69936
C         17.10087        29.46769         1.56542
C         18.36450        31.60669         1.63938
C         17.12235        30.89550         1.53455
C         18.35708        33.03244         1.54087
C         17.15919        33.71537         1.20346
C         18.22279        35.91487         1.71508
C         17.24359        35.17838         0.83194
C         18.21312        37.39109         1.62588
C         17.07582        38.03450         1.22658
C         18.17001        40.28278         1.53171
C         17.10450        39.49362         0.81845
C         18.25390        41.73285         1.19190
C         17.01011        42.39489         0.77336
C         18.22272        44.56651         0.96926
C         17.02112        43.78523         0.84664
C         18.31627        45.88817         0.56094
C         16.72578        46.60827        -0.91902
C         18.59367        48.19872        -1.53988
C         17.32744        47.50744        -1.80414
C         18.86058        49.32118        -2.38777
C         17.91322        49.74360        -3.41604
C         19.12744        51.85043        -3.82054
C         18.03071        51.01233        -4.04251
C         19.15980        53.17174        -4.27189
C         20.62294         6.15173        -1.61960
C         20.52289         7.54864        -1.40323
C         19.39577         8.11939        -0.83627
C         20.70868        10.31393        -0.48595
C         19.39380         9.50820        -0.33398
C         20.62082        11.77377        -0.35508
C         19.45296        12.38438         0.04878
C         20.71291        14.57724         0.22409
C         19.38067        13.89397        -0.00249
C         20.71345        15.92972         0.75150
C         19.55617        16.62221         1.09387
C         20.78478        18.72223         1.44301
C         19.57743        18.00458         1.52242
C         20.83868        20.13446         1.77433
C         19.68675        20.78559         2.29474
C         20.92036        22.91699         2.16123
C         19.85748        22.13923         2.62975
C         20.85798        24.39093         1.97581
C         19.59209        25.12890         1.67802
C         20.77072        27.33267         2.07156
C         19.55988        26.62746         1.83582
C         20.80279        28.75346         2.04137
C         19.57871        29.47546         1.86588
C         20.83125        31.62560         1.97466
C         19.59180        30.90473         1.83990
C         20.79947        33.07636         1.94177
C         19.59141        33.74777         1.73442
C         20.77738        36.00922         1.88786
C         19.52883        35.21321         1.95668
C         20.73303        37.40482         1.85217
C         19.42407        38.07181         2.23843
C         20.67614        40.31133         1.72788
C         19.38196        39.58096         2.04292
C         20.58706        41.77145         2.18663
C         19.38551        42.42956         1.53137
C         20.70081        44.63214         1.37855
C         19.39152        43.92455         1.63166
C         20.70392        45.97616         0.84238
C         19.55903        46.57038         0.27752
C         20.87920        48.43274        -0.66957
C         19.62856        47.76092        -0.61037
C         21.07410        49.61504        -1.43230
C         20.05033        50.07476        -2.26823
C         21.28883        52.24927        -2.60006
C         20.35006        51.22933        -3.19725
C         21.31601        53.55677        -3.11439
C         20.25483        54.03739        -3.98319
C         21.37450        56.22715        -4.15863
C         20.29248        55.34819        -4.46263
C         21.42400        57.53884        -4.66079
C         23.06977         3.54696        -2.74271
C         21.88383         4.14704        -2.29658
C         22.96218         6.35469        -2.42250
C         21.79807         5.54667        -2.12527
C         22.91761         7.74922        -2.26591
C         21.60295         8.43224        -1.99228
C         22.84952        10.56811        -1.69979
C         21.79211         9.76280        -1.31237
C         22.86640        11.96380        -1.33255
C         21.79352        12.55695        -0.66993
C         23.26120        14.48280        -0.01811
C         21.85495        13.93392        -0.20518
C         23.28598        15.94915         0.40027
C         22.01032        16.62130         0.87451
C         23.19782        18.77845         0.80404
C         22.00726        18.08749         0.99993
C         23.38146        20.15408         1.38256
C         22.06770        20.83902         1.68236
C         23.33258        23.02742         1.77116
C         22.08799        22.23661         1.81287
C         23.28058        24.49531         1.89360
C         22.10932        25.14323         2.18156
C         23.30840        27.31986         2.17160
C         22.02968        26.60436         2.51012
C         23.29188        28.74985         2.23766
C         22.05822        29.48779         2.16568
C         23.33583        31.68847         2.24051
C         22.05153        30.91606         2.12188
C         23.26266        33.18090         2.53803
C         22.01412        33.86671         2.06476
C         23.29983        35.93944         1.56263
C         22.00059        35.24547         1.89317
C         23.11804        37.44344         1.27026
C         21.95072        38.20185         1.83416
C         23.08966        40.39133         2.72012
C         21.94959        39.56982         2.07569
C         23.16970        41.82534         2.17629
C         21.88483        42.52983         1.89255
C         23.07988        44.80639         2.18305
C         21.85566        44.01080         1.79218
C         23.24233        46.02724         1.30492
C         21.98971        46.68308         0.84482
C         23.42441        48.39229        -0.46676
C         22.06750        47.97131         0.10333
C         23.36979        49.90189        -0.57448
C         22.27483        50.43515        -1.21704
C         23.35585        52.67717        -1.37264
C         22.28105        51.81418        -1.68827
C         23.44869        53.96394        -1.95098
C         22.39433        54.43290        -2.78619
C         23.55697        56.59286        -3.04105
C         22.44328        55.75147        -3.32242
C         23.60130        57.90996        -3.57531
C         22.52002        58.39270        -4.37913
C         23.67845        60.53397        -4.61565
C         22.58115        59.71771        -4.88800
C         24.19791         4.30696        -3.02101
C         25.30076         6.51915        -3.15657
C         24.17588         5.72503        -2.86603
C         25.26536         7.92373        -3.00306
C         24.05470         8.54562        -2.53688
C         25.12642        10.74582        -2.71221
C         24.01595         9.97444        -2.36699
C         25.06645        12.22201        -2.62830
C         23.92862        12.83743        -1.87383
C         25.43458        14.84352        -1.34117
C         24.11480        14.18732        -1.24254
C         25.56333        16.15047        -0.67955
C         24.37962        16.81031        -0.07430
C         25.46996        19.04705        -0.23012
C         24.36616        18.17408         0.20417
C         25.49648        20.40916        -0.02458
C         24.25261        21.06597         0.49957
C         25.64497        23.24464         0.71593
C         24.53902        22.38739         1.18427
C         25.66429        24.61965         1.13526
C         24.52144        25.21310         1.71756
C         25.83451        27.22915         2.24247
C         24.49565        26.61532         1.97589
C         25.77172        28.72082         2.26062
C         24.55250        29.40447         2.33954
C         25.76936        31.29039         3.24452
C         24.58225        30.87897         2.47438
C         25.85732        33.52465         3.09643
C         24.49564        34.04445         2.78649
C         25.69265        36.14048         2.43497
C         24.49526        35.47846         2.40409
C         25.68602        37.61461         2.35669
C         24.56273        38.39069         2.91803
C         25.65087        40.54173         2.57204
C         24.44944        39.74577         2.62938
C         25.65310        41.92925         2.63189
C         24.40872        42.63998         2.40898
C         25.56172        44.83146         2.59381
C         24.36504        44.00497         2.27209
C         25.53572        46.31844         2.20875
C         24.42402        46.68962         1.24667
C         25.72466        48.80491         0.76385
C         24.70588        47.79781         0.24727
C         25.69521        50.16886         0.41742
C         24.42655        50.76266        -0.04226
C         25.67704        52.98359        -0.41618
C         24.40982        52.23289        -0.44983
C         25.71540        54.28506        -0.97341
C         24.59494        54.80047        -1.70174
C         25.80137        56.93687        -2.02999
C         24.64418        56.10188        -2.24905
C         25.81384        58.25049        -2.55358
C         24.73268        58.75287        -3.31373
C         24.74503        60.06942        -3.84575
C         26.39404         8.73253        -3.29565
C         27.53502        10.91261        -3.36496
C         26.35348        10.13083        -3.15753
C         27.60439        12.29205        -3.11076
C         26.34835        13.00812        -2.76994
C         27.69377        15.06126        -2.32301
C         26.47004        14.32514        -2.09739
C         27.73453        16.44183        -2.03134
C         26.70505        17.01141        -1.14324
C         27.52158        19.36720        -1.74897
C         26.47371        18.47650        -1.14507
C         27.60217        20.75810        -1.26782
C         26.59277        21.27261        -0.47398
C         27.81317        23.49423        -0.39529
C         26.65441        22.68021        -0.05170
C         27.91654        24.85581         0.11777
C         26.85310        25.41589         0.85905
C         28.20162        27.45559         1.31465
C         26.97861        26.72317         1.39600
C         28.34997        28.71291         2.18046
C         27.02731        29.37778         2.43240
C         28.68435        31.86971         2.88468
C         26.91716        30.56916         3.21047
C         28.42830        33.38984         3.10186
C         27.05720        34.01718         2.68874
C         28.26954        36.26420         2.38388
C         27.01900        35.43012         2.11829
C         28.24825        37.65709         2.31813
C         26.96802        38.38240         2.25764
C         28.23531        40.55415         2.68840
C         26.92936        39.79871         2.71958
C         28.18670        42.02095         2.65439
C         26.90390        42.64332         3.18112
C         28.14224        44.99192         3.10262
C         26.83794        44.17356         3.02711
C         28.06763        46.31772         2.32297
C         26.90425        46.89422         1.86369
C         28.08411        49.05736         1.38954
C         26.90112        48.24994         1.33038
C         28.05423        50.43141         1.00339
C         26.83838        51.01158         0.56354
C         28.03518        53.17992         0.23804
C         26.82507        52.39661         0.15329
C         28.03178        54.52376        -0.19766
C         26.90083        55.08965        -0.82508
C         26.90779        56.41322        -1.32617
C         28.78801        13.04133        -3.23519
C         29.98017        15.22860        -3.19090
C         28.82887        14.44468        -2.95478
C         29.99864        16.62926        -2.95419
C         28.80730        17.24406        -2.45093
C         29.98952        19.50991        -2.50738
C         28.71964        18.71509        -2.37821
C         30.01462        20.89581        -1.99566
C         28.68637        21.63064        -1.86428
C         29.96558        23.82683        -1.62916
C         28.82433        22.96195        -1.16714
C         30.19816        25.04566        -0.74607
C         29.13587        25.61977        -0.03677
C         30.64337        27.61343         0.66216
C         29.27990        26.91119         0.60985
C         30.54454        29.13235         0.79266
C         29.68165        29.64097         1.97015
C         30.38221        32.03659         1.16024
C         29.46869        31.19975         1.98957
C         30.64959        33.42995         1.67708
C         29.60426        34.14923         2.49881
C         30.65711        36.31841         1.85190
C         29.53066        35.60680         2.30818
C         30.64349        37.74565         1.80942
C         29.44641        38.43216         2.17492
C         30.57230        40.60638         1.84430
C         29.43359        39.84864         2.21492
C         30.54816        42.03550         1.93040
C         29.33643        42.72073         2.37467
C         30.68435        44.89085         2.35097
C         29.41415        44.16804         2.72648
C         30.67996        46.38786         2.30286
C         29.31649        47.10778         2.28607
C         30.54174        49.19219         1.64057
C         29.31146        48.47368         1.77376
C         30.48953        50.57123         1.34740
C         29.26488        51.21020         1.05290
C         29.22423        52.57813         0.70808
C         31.19731        17.40368        -3.05066
C         32.45635        19.48347        -2.56084
C         31.25771        18.77044        -2.70477
C         32.48482        20.85231        -2.13605
C         31.20857        21.55312        -1.88968
C         32.43452        23.64496        -1.71240
C         31.24041        23.00248        -1.73916
C         32.38826        25.15096        -1.83382
C         31.59282        25.62573        -0.61580
C         32.50684        27.90947        -1.05719
C         31.58317        27.12450        -0.43692
C         32.44499        29.36394        -0.81452
C         31.44822        29.91805         0.12450
C         32.51928        32.31616        -0.30364
C         31.36472        31.42002         0.21477
C         32.92004        33.41852         0.68934
C         31.71286        34.24199         1.05088
C         32.91314        36.37194         0.82549
C         31.78605        35.60823         1.28278
C         32.92959        37.75842         0.90355
C         31.77422        38.48363         1.37438
C         32.86366        40.66129         0.91924
C         31.74684        39.91325         1.37523
C         32.86413        42.06402         1.00248
C         31.71496        42.76367         1.53640
C         32.88017        44.91499         1.16874
C         31.75624        44.17766         1.62900
C         32.92041        46.32613         1.23686
C         31.82906        47.09042         1.70123
C         31.78154        48.48345         1.59723
C         33.67836        21.52106        -1.93562
C         34.89945        23.69201        -1.20082
C         33.65056        22.87298        -1.28277
C         34.88772        25.08089        -1.24891
C         33.78856        25.75888        -2.05004
C         35.01668        27.92203        -1.60419
C         33.64612        27.34754        -1.96006
C         35.23109        29.26551        -1.92531
C         33.35024        30.24348        -1.36941
C         35.11334        32.09553        -0.68208
C         33.73105        31.49137        -0.66583
C         35.19006        33.56967        -0.37897
C         34.09699        34.20142         0.15421
C         35.36714        36.33943         0.41797
C         34.03136        35.70380         0.05907
C         35.29322        37.83745         0.23317
C         34.11571        38.48931         0.47879
C         35.34177        40.68084         0.56646
C         34.02333        39.97498         0.22517
C         35.29742        42.14907         0.11691
C         34.02147        42.82597         0.58837
C         34.00620        44.19607         0.64976
C         36.04075        25.79900        -0.87412
C         37.34182        27.89415        -0.81229
C         36.12852        27.20426        -1.06229
C         37.46079        29.29118        -1.00105
C         36.33222        30.00889        -1.50705
C         37.57402        32.15245        -1.16275
C         36.26380        31.52219        -1.55166
C         37.60764        33.62498        -1.18770
C         36.40024        34.34342        -0.69389
C         37.72828        36.43991        -0.47442
C         36.50559        35.67038        -0.33029
C         37.71706        37.80552        -0.36819
C         36.52036        38.57127        -0.06980
C         36.54065        39.93453         0.03249
C         38.67119        29.99642        -0.76728
C         40.00185        32.08983        -0.70860
C         38.73087        31.40628        -0.91321
C         40.12061        33.43299        -0.79277
C         38.95544        34.29818        -1.07505
C         39.06408        35.74099        -0.61696
O         28.03947        31.09278         3.87128
O         22.98380        16.04233         1.83747
O         23.56243        33.66818         3.87999
O         30.47960        44.36991         3.71222
O         17.63442        20.31495         3.67263
O         27.66841        39.98843         3.94825
O         26.17117        38.14531         1.05398
O         25.81932        32.45392         4.00329
O         18.40296        40.13952         2.97513
O         26.75939        16.37503         0.17193
O         23.72510        37.91571         0.31587
O         29.06647        19.36087        -3.66432
O         15.81997        44.48882         0.78239
O         24.37788        22.43060         2.62970
O         23.92305        51.81120         0.86697
O         18.95979        22.81352         3.45745
O         17.22400        25.84976        -0.01760
O         28.30038        28.31856         3.55490
O         22.68895        41.94126         0.78954
O         38.31323        34.16618        -2.37970
O         30.80635        33.60467         3.13020
O         24.31105        31.50195         1.14551
O         20.47862        24.76296         0.56179
O         25.89872        44.69342         4.02877
O         34.14321        25.45679        -3.37052
O         18.53110        35.43536         3.04598
O         20.40446         9.60778         0.75271
O         34.69514        31.24711         0.42215
O         11.67586        38.93936         0.99054
O         13.61474        30.83257        -0.93936
O         25.36947        12.93187        -3.86972
O         13.67987        37.51832         1.89371
O         30.08590        31.97161        -0.28380
O         17.12765        46.59681         0.41384
O         13.15675        41.34436        -2.07999
O         30.16009        46.99298         3.49953
O         23.37948        14.06053        -2.49457
O         26.29876        19.02417        -2.50252
O         15.70082        20.35582         0.49175
O         34.13890        29.95298        -2.47746
O         10.31444        27.36521         2.05867
O         10.87056        29.09406        -2.06603
O         21.87469        48.01979         1.53404
O         25.50885        47.14149        -0.73339
O         33.78289        35.99451        -1.35133
H         33.17985        35.30339        -1.70276
O         32.08845        32.96850        -1.51484
H         31.10313        32.90181        -1.54551
O         23.42695        47.87835        -1.81692
H         24.31811        47.41749        -1.89258
O         35.60463        36.08672         1.83318
H         36.30215        36.70376         2.13818
O         18.46912        23.47307         0.33444
H         18.59651        24.08974        -0.42143
O         17.83292        35.23014        -0.50646
H         17.09600        35.04987        -1.14338
O         15.22182        23.37804         3.43865
H         15.24697        22.53977         3.94821
O         15.22157        35.05544        -1.31665
H         14.54080        34.49811        -1.79026
O          9.21915        30.80604         0.69274
H          9.71779        30.31993         1.38432
O         23.69661        37.77485         3.75363
H         23.11868        38.46466         4.16777
O         19.33519        37.85564         3.67384
H         18.64242        38.47006         4.00914
O         20.42128        41.80678         3.62815
H         20.05563        42.70428         3.84555
O         32.20771        25.02843         0.57112
H         31.93652        25.58836         1.34785
O         28.52300        33.59279         4.52485
H         28.01343        32.86702         4.95136
O         12.82108        28.87669         2.80791
H         12.88377        29.83277         3.04485
O         21.96142        26.65991         3.98940
H         22.82792        26.35346         4.33639
O         28.24505        21.91462        -3.24137
H         28.32937        21.05759        -3.73836
O         17.38039        16.04664         3.21530
H         16.85205        16.63719         3.80065
O         33.34851        27.77557        -3.28782
H         33.75679        27.07272        -3.86660
O         17.72887        16.34302        -0.41014
H         18.19039        15.79524        -1.09103
O          9.68070        31.17717        -2.92980
H         10.16976        30.30000        -2.94070
O         39.73417        35.78144         0.65879
H         39.15230        35.36740         1.32892
O         28.26315        45.35610         4.48687
H         29.21098        45.58362         4.64771
O         35.96433        31.96278        -2.90139
H         36.79021        31.94425        -3.42848
O         24.11047        19.92024         2.61468
H         23.57762        19.32384         3.18040
O         31.65600        25.52452        -2.99823
H         32.33278        25.50078        -3.72515
O         23.44786        21.37104        -0.67649
H         24.04311        21.61615        -1.41591
O         26.12806        26.79948         3.61664
H         26.99629        27.23437         3.85732
O         29.49332        24.31137        -2.92105
H         29.05987        23.54773        -3.37933
O         33.79764        40.12587        -1.21334
H         33.17472        39.42535        -1.50113
O         20.67755        40.31767         0.26982
H         21.52738        40.72902        -0.02236
O         22.70992        40.40827         4.12799
H         21.84458        40.89618         4.21148
O         23.87456        13.72155         1.05213
H         23.58021        14.13737         1.89584
O         33.44897        22.60973         0.16728
H         33.03360        23.43106         0.54497
O         21.09011        50.64106        -4.32676
H         21.82774        50.11280        -3.95156
O         35.44445        42.26542        -1.30010
H         34.80480        41.64126        -1.71473
O         22.81421        45.27705         3.54155
H         23.45887        46.00471         3.72554
O         35.44050        40.66407         2.01636
H         36.30981        41.03686         2.27172
O         19.17912        44.18336         3.09770
H         18.22106        44.06463         3.27987
O         30.48698        29.35538         3.13506
H         29.83051        29.06408         3.83244
O         18.87295        14.05556         2.28258
H         18.34890        14.52746         2.97278
O         26.91330        42.39191         4.60578
H         26.33335        43.07318         5.01660
O         10.26681        24.66794         2.34650
H         10.19621        25.66738         2.43998
O         33.30573        32.76321         1.92051
H         33.35849        33.43722         2.63043
O         13.97863        31.35726         2.70268
H         14.66576        31.27203         3.39791
O         17.61385        39.45078        -0.56238
H         17.04110        38.84929        -1.08337
O         18.95361        14.21022        -1.36695
H         19.66986        13.93451        -1.97818
O         21.05728         8.78245        -3.32280
H         21.77063         9.23126        -3.82615
O         13.09228        33.51384        -2.02963
H         13.24355        32.55432        -2.20785
O         15.59616        18.43567         3.68601
H         14.68560        18.71636         3.91616
O         25.15949        47.03392         3.42978
H         25.65605        46.59877         4.16600
O         26.98765        35.33985         0.65997
H         26.79130        36.24488         0.32018
O         31.25103        27.11580         1.91173
H         31.10954        27.82269         2.60492
O         23.69059        35.37996         0.27538
H         24.10424        36.12312        -0.23123
H          5.60559        30.71492        -2.29596
H          5.57532        33.17570        -2.38264
H          7.88030        26.54763        -0.99831
H          6.74066        28.64383        -1.59205
H          6.65473        35.35390        -1.93749
H          7.76697        37.53155        -1.63792
H          9.98928        22.36100         0.76735
H          9.12343        24.45759        -0.47539
H          8.92266        39.65818        -1.54993
H          9.86313        41.75391        -1.60581
H         12.54448        18.09156         0.96037
H         11.23744        20.22467         0.87900
H         11.41793        44.16934        -2.25482
H         13.15266        45.41613        -3.55557
H         14.85396        13.99413         0.78441
H         13.72127        16.08176         0.97887
H         14.87848        47.23028        -4.26879
H         16.20707        49.17855        -4.62048
H         17.20866         9.78540        -0.27757
H         16.03655        11.85669         0.34201
H         17.19838        51.36193        -4.67305
H         18.29632        53.57324        -4.82487
H         19.78656         5.50597        -1.30986
H         18.53491         7.47833        -0.58592
H         19.47661        55.71247        -5.10491
H         20.60278        57.90829        -5.29282
H         23.10555         2.45568        -2.86866
H         21.00623         3.52376        -2.07281
H         23.70627        61.55629        -5.01828
H         21.75209        60.09544        -5.50333
H         25.12158         3.82100        -3.36636
H         26.22351         6.03987        -3.51582
H         26.69082        58.89105        -2.37622
H         25.60735        60.72159        -3.64659
H         27.32543         8.24982        -3.62696
H         28.45165        10.38514        -3.67044
H         28.94832        55.12311        -0.09487
H         27.80370        57.03637        -1.18790
H         29.70536        12.54167        -3.58149
H         30.88503        14.74415        -3.58702
H         31.42546        51.14503         1.28504
H         30.14969        53.17145         0.74568
H         32.13433        16.88283        -3.29952
H         33.41326        18.96591        -2.72675
H         33.80941        46.84945         0.85621
H         32.67664        49.02480         1.25792
H         34.63759        21.01615        -2.12386
H         35.78190        23.18830        -0.76928
H         36.16996        42.68871         0.57695
H         34.89116        44.76697         0.33257
H         36.91837        25.25495        -0.49057
H         38.20717        27.32832        -0.43833
H         38.66163        38.35904        -0.48246
H         37.47737        40.48853        -0.13543
H         39.57709        29.44355        -0.48152
H         40.87880        31.47174        -0.46585
H         41.07877        33.92286        -0.56572
H         39.71581        36.30492        -1.33114
