         429
 CSIRO Nanostructure Databank - Neutral Graphene Oxide Data Set
C          1.08729         3.60480         0.19954
C         -0.09765         4.31445         0.28798
C          1.11520         6.43998         0.44233
C         -0.09079         5.71302         0.40625
C          1.13851         7.87975         0.58045
C         -0.08488         8.63390         0.52687
C          1.09884        10.70345         1.11018
C         -0.12233         9.97430         0.75134
C          1.10126        12.22718         1.20623
C         -0.10929        12.99185         0.84350
C          1.21366        14.94404         0.12713
C         -0.04698        14.25494         0.36675
C          1.22214        16.31166        -0.37329
C          0.04706        17.03223        -0.65436
C          1.29223        19.08593        -1.12306
C          0.08528        18.37565        -1.03562
C          1.32224        20.54365        -1.57858
C          0.08552        21.29291        -1.17176
C          1.31505        23.39111        -0.88202
C          0.09132        22.62067        -0.93924
C          1.23066        24.81355        -0.61844
C          0.03761        25.54213        -0.85560
C          1.11704        27.65469        -0.25754
C         -0.00691        26.91689        -0.70967
C          1.10428        29.11665        -0.15475
C         -0.08227        29.85818        -0.52091
C          0.96294        32.03393        -0.00473
C         -0.13731        31.21548        -0.52641
C          1.06633        33.47500        -0.32075
C         -0.09085        34.19835        -0.69744
C          1.18173        36.26153        -0.78349
C         -0.04234        35.56125        -0.91347
C          1.24075        37.67316        -0.99977
C          3.54898         3.57562         0.14221
C          2.33634         4.28835         0.22803
C          3.59527         6.40779         0.38674
C          2.35116         5.71851         0.35631
C          3.62608         7.83848         0.61803
C          2.37060         8.57687         0.74367
C          3.60645        10.72330         0.99655
C          2.37692         9.98038         0.95901
C          3.63797        12.10946         0.95148
C          2.42374        12.99243         1.21109
C          3.66849        14.90469         0.08872
C          2.40533        14.28907         0.41223
C          3.68763        16.27119        -0.38121
C          2.47160        16.98900        -0.54160
C          3.75353        19.06415        -1.02920
C          2.49309        18.38013        -0.89206
C          3.77909        20.50193        -1.29382
C          2.62100        21.29785        -1.26785
C          3.71994        23.57038        -0.68189
C          2.56551        22.74580        -1.02600
C          3.61865        24.84321        -0.04328
C          2.35905        25.53583        -0.13116
C          3.43234        27.65866         0.67549
C          2.28011        26.93695         0.09185
C          3.51308        29.12731         0.45736
C          2.27612        29.81071         0.13951
C          3.53219        32.02585         0.22238
C          2.26980        31.27820         0.30381
C          3.54151        33.40425         0.06402
C          2.30638        34.13884        -0.19281
C          3.60608        36.24966        -0.34925
C          2.36416        35.54455        -0.44011
C          3.63286        37.65188        -0.56164
C          2.42751        38.34887        -0.88313
C          6.01013         3.53402         0.05235
C          4.79018         4.24714         0.13052
C          6.05988         6.37116         0.17317
C          4.80468         5.68444         0.23682
C          6.09005         7.79350         0.48428
C          4.84525         8.48832         0.74377
C          6.11787        10.61593         0.73769
C          4.88157         9.92733         1.21761
C          6.20938        12.06271         0.70975
C          4.91296        12.85766         0.82590
C          6.06779        14.75660        -0.48012
C          4.87107        14.20737         0.25630
C          6.15312        16.25409        -0.39649
C          4.93579        16.95776        -0.55124
C          6.28748        19.00127        -1.10247
C          4.94555        18.36205        -0.83401
C          6.26084        20.50338        -0.93957
C          5.10295        21.06673        -1.42098
C          6.17912        23.62416        -0.32813
C          5.03282        23.18061        -0.99729
C          6.04741        24.82235         0.42243
C          4.79867        25.48101         0.43950
C          5.97045        27.66931         0.93156
C          4.73464        26.88872         0.89266
C          5.91564        29.12021         1.04096
C          4.69214        29.82061         0.60517
C          6.05435        31.99938         0.51084
C          4.81212        31.23556         0.08722
C          6.02586        33.43608         0.35147
C          4.80623        34.12556         0.09091
C          6.04443        36.27461         0.02995
C          4.82227        35.54404        -0.06614
C          6.03682        37.69541        -0.13705
C          4.86184        38.35594        -0.43742
C          8.46635         3.48143        -0.10654
C          7.25373         4.20209        -0.06690
C          8.48939         6.37348        -0.32647
C          7.23739         5.64957        -0.09229
C          8.54962         7.81426         0.12562
C          7.32005         8.43849         0.62932
C          8.68365        10.62747         0.93083
C          7.36001         9.87908         0.92579
C          8.71212        12.02522         0.50412
C          7.41599        12.56891        -0.06912
C          8.68347        14.81940        -0.06116
C          7.41711        14.06770        -0.28129
C          8.61113        16.26911         0.34829
C          7.39473        16.95245        -0.24892
C          8.61258        19.07718        -0.00031
C          7.44145        18.30774        -0.45627
C          8.58840        20.56198         0.05694
C          7.47803        21.30960        -0.65475
C          8.59271        23.36448         0.40046
C          7.42713        22.81723        -0.37069
C          8.57027        24.78357         0.86126
C          7.24796        25.48042         0.99762
C          8.51615        27.73851         1.12565
C          7.23718        26.98534         1.15224
C          8.50357        29.09739         1.10743
C          7.22235        29.86652         1.12123
C          8.50955        31.98426         0.79990
C          7.24670        31.31415         0.77224
C          8.47919        33.45891         0.76784
C          7.23481        34.18289         0.47716
C          8.53539        36.29445         0.13721
C          7.27381        35.57775         0.27064
C          8.55949        37.71546        -0.05384
C          7.28695        38.50822         0.10086
C         11.04731         3.44987        -0.19309
C          9.75729         4.09878        -0.41131
C         11.06477         6.33335        -0.30712
C          9.77911         5.63406        -0.52561
C         11.11498         7.71096        -0.00015
C          9.88791         8.38724         0.46954
C         11.22072        10.56771         0.56658
C          9.95977         9.84891         0.82670
C         11.20496        11.99576         0.47809
C          9.94656        12.69213         0.38095
C         11.15535        14.82507        -0.00261
C          9.96123        14.10552         0.18583
C         11.09914        16.25073        -0.15173
C          9.91234        16.98473         0.03618
C         11.13473        19.13447        -0.18166
C          9.91748        18.38770         0.00679
C         11.15314        20.55298        -0.11722
C          9.92269        21.24830         0.40996
C         11.06733        23.42850         0.12726
C          9.90326        22.72274         0.12691
C         11.00153        24.91124         0.24359
C          9.79003        25.56441         0.74915
C         11.04787        27.76317         1.04116
C          9.80535        26.95229         1.35967
C         11.02272        29.12389         1.15519
C          9.75132        29.88254         1.45902
C         10.97740        31.95248         0.61167
C          9.74450        31.30473         0.91375
C         10.93485        33.34157         0.11812
C          9.77829        34.18604         0.49881
C         10.98966        36.25603        -0.17153
C          9.75276        35.59468         0.07998
C         11.00225        37.68468        -0.30287
C          9.75400        38.37937        -0.25526
C         13.49821         3.43568        -0.33590
C         12.25209         4.13485        -0.37069
C         13.49287         6.30499        -0.45718
C         12.26517         5.59626        -0.42650
C         13.54968         7.70430        -0.28894
C         12.34891         8.41636         0.04995
C         13.71127        10.52980         0.51724
C         12.38577         9.82678         0.34770
C         13.65926        12.02085         0.24814
C         12.42983        12.71616         0.25605
C         13.64303        14.80166        -0.27100
C         12.41937        14.12400        -0.01667
C         13.60722        16.21979        -0.71022
C         12.30281        16.97680        -0.58483
C         13.57906        19.12897        -0.43744
C         12.35062        18.43845        -0.41914
C         13.58808        20.55926        -0.35447
C         12.35769        21.27623        -0.22068
C         13.53495        23.45323        -0.02112
C         12.35063        22.74218        -0.04929
C         13.57321        24.87290         0.32593
C         12.30809        25.65282         0.33211
C         13.51191        27.69528         0.93778
C         12.31143        27.05228         0.83594
C         13.58532        29.15942         1.08938
C         12.27452        29.91493         1.14461
C         13.45950        31.94600         0.28464
C         12.23782        31.30574         0.65600
C         13.48438        33.33497        -0.06603
C         12.21762        34.06477        -0.21642
C         13.44489        36.22107        -0.28209
C         12.22027        35.53920        -0.20719
C         13.45773        37.65864        -0.37294
C         12.23238        38.35966        -0.41196
C         15.96884         3.41710        -0.49261
C         14.73221         4.08561        -0.51441
C         16.04225         6.29258        -0.64574
C         14.72324         5.54806        -0.73620
C         16.01799         7.72156        -0.31440
C         14.82961         8.39847        -0.26948
C         16.13416        10.58605        -0.07591
C         14.80430         9.90582        -0.34007
C         16.12197        11.98814         0.03663
C         14.88044        12.71361         0.07152
C         16.14732        14.81620        -0.38625
C         14.87781        14.13255        -0.13937
C         16.09976        16.19797        -1.02097
C         14.86015        17.00691        -0.65744
C         16.08919        19.11781        -0.12670
C         14.83032        18.37282        -0.51621
C         16.04703        20.60695        -0.38271
C         14.84747        21.28063        -0.39628
C         16.04634        23.37677         0.20320
C         14.82385        22.80402        -0.49764
C         16.02419        24.78208         0.74036
C         14.74077        25.50645         0.66502
C         16.02468        27.63913         0.61581
C         14.79187        26.93736         1.12434
C         15.95829        29.03570         0.06152
C         14.76479        29.84464         0.53863
C         15.94129        31.84063        -0.25895
C         14.70081        31.18787         0.24086
C         15.93936        33.33506        -0.44881
C         14.67430        34.05884        -0.24243
C         15.92163        36.18222        -0.34172
C         14.68510        35.48663        -0.30876
C         15.92268        37.62728        -0.39895
C         14.70569        38.32834        -0.43605
C         18.46063         3.38346        -0.51116
C         17.22185         4.10513        -0.50544
C         18.51420         6.21647        -0.41006
C         17.27542         5.51806        -0.46120
C         18.55232         7.64210        -0.31746
C         17.30750         8.36861         0.13285
C         18.59629        10.53769        -0.18510
C         17.33504         9.85713        -0.09333
C         18.62451        11.95782        -0.18141
C         17.40449        12.74160         0.25671
C         18.60930        14.78627        -0.84619
C         17.33963        14.15634        -0.28992
C         18.64869        16.28358        -0.65009
C         17.39247        17.00366        -0.90152
C         18.62718        19.16178        -0.26933
C         17.36307        18.48077        -0.64364
C         18.61590        20.56675        -0.15520
C         17.35842        21.30132        -0.42852
C         18.58326        23.44654         0.35411
C         17.36649        22.79432        -0.15865
C         18.53585        24.83336         0.70538
C         17.28788        25.53071         0.79952
C         18.48815        27.70210         0.69030
C         17.25460        26.96647         0.71171
C         18.48740        29.10166         0.45856
C         17.25433        29.80121         0.22180
C         18.46119        31.93132        -0.02969
C         17.24225        31.17244         0.01034
C         18.45804        33.34557        -0.25671
C         17.20512        34.07885        -0.35087
C         18.46319        36.20623        -0.06062
C         17.16450        35.46433        -0.29884
C         18.39867        37.68255        -0.40087
C         17.15983        38.33196        -0.46383
C         19.66561         4.04454        -0.54305
C         20.95213         6.18230        -0.59163
C         19.72732         5.47097        -0.51117
C         20.97014         7.56184        -0.57917
C         19.77468         8.32674        -0.41417
C         21.01700        10.50315        -0.48969
C         19.80771         9.78961        -0.35382
C         21.04265        11.88856        -0.49511
C         19.84858        12.64179        -0.35459
C         21.00454        14.81841        -0.08109
C         19.86068        14.08485        -0.39031
C         21.00336        16.21207        -0.05132
C         19.81663        16.96377        -0.30761
C         21.01075        19.14655         0.10888
C         19.82634        18.42683        -0.15923
C         20.99775        20.52541         0.25937
C         19.80878        21.27624         0.13016
C         20.98307        23.44085         0.64672
C         19.80111        22.73037         0.35192
C         20.95876        24.81741         0.88164
C         19.76133        25.53496         0.90356
C         20.97425        27.76678         0.82382
C         19.72845        27.01942         1.21540
C         20.94728        29.08338         0.50586
C         19.71440        29.82904         0.39413
C         20.90724        31.99029         0.05503
C         19.70460        31.24044         0.14130
C         20.89075        33.34781        -0.22166
C         19.67972        34.04477        -0.37543
C         20.90468        36.30040        -0.57479
C         19.63252        35.50960        -0.77789
C         20.85359        37.66212        -0.50373
C         19.61264        38.36925        -0.51169
O         13.09645        29.71112         2.35945
O         15.40903         5.99006        -1.95304
O          3.80143        27.18832         2.00724
O         11.33263        33.50346        -1.27648
O          7.90251        22.28637        -1.65195
O         17.40058        18.00404        -2.01842
O         15.93325        23.57701         1.62562
O          7.99964        10.34954         2.20703
O          5.18504        22.30556        -2.06296
O          7.11542        26.04374         2.33701
O          9.30501        34.01749         1.86613
O         17.48119        22.28441        -1.51563
O         11.59330        25.59930        -0.95700
O         15.85491        32.39699        -1.61016
O         10.04013         8.81348         1.86169
O          5.86124        12.72693         1.97483
O          0.95627        11.43247         2.42317
O          1.35915        31.72096         1.36636
O          8.47290        23.59255         1.83516
O          8.25076        14.48265        -1.43435
O          8.41217         7.47483        -1.30170
O          8.12543        19.82582         1.24450
O          6.46863        29.64137         2.36862
O         12.79690        16.48505        -1.90046
O          9.74821         4.83285        -1.71769
O         18.74311        36.11713         1.36583
H         18.06914        36.64906         1.83790
O         14.96538        26.88599         2.59313
H         14.56461        27.69612         2.97777
O          1.28796        20.48005        -3.05144
H          1.28332        21.40226        -3.38513
O          9.70555        30.02922         2.90861
H          8.78556        30.25365         3.16665
O          2.62341        13.44245         2.58851
H          2.29107        12.71570         3.16553
O         17.30500         8.19852         1.60631
H         18.15716         8.55033         1.94166
O          5.72378        14.47936        -1.89122
H          6.51459        14.73858        -2.41826
O          4.99438        31.05516        -1.38178
H          5.06886        31.95136        -1.77590
O          5.03140         9.86837         2.68328
H          5.37920        10.74425         2.97093
O         17.54208        12.89802         1.72506
H         17.31980        12.03334         2.13234
O         14.95194        23.17845        -1.89350
H         14.20404        22.78639        -2.39005
O         14.44464        10.21368        -1.71621
H         15.07174         9.75207        -2.31139
O         18.51735        14.56862        -2.30120
H         17.66337        14.97565        -2.59917
O          9.85678        26.69630         2.79840
H          8.97622        26.32886         3.05766
O         15.95789        15.90641        -2.44799
H         16.08072        16.76264        -2.92071
O         19.64845        27.10387         2.69100
H         19.55716        28.05216         2.92444
O          7.29765        11.94174        -1.37925
H          7.84133        12.48185        -1.99696
O          6.52980        18.81188        -2.55471
H          5.76415        19.18974        -3.03921
O         19.36970        35.51319        -2.20874
H         19.35015        36.44819        -2.50368
O         10.10547        21.19120         1.85595
H          9.33083        20.70645         2.23162
O          8.44031        16.26201         1.79206
H          8.35958        17.19250         2.09254
O         15.75856        28.85789        -1.39206
H         15.83985        29.74237        -1.81253
O         16.19537        18.96327         1.32995
H         15.43160        19.42228         1.74048
O          7.30504        39.67912        -0.72283
H          7.35919        39.39457        -1.65787
O         14.10517        10.34288         1.90887
H         13.34600        10.59293         2.47656
H          1.07707         2.50959         0.10582
H         -1.05915         3.78257         0.26856
H         -1.05597         6.22968         0.48662
H         -1.02549         8.11672         0.29549
H         -1.08329        10.50552         0.73906
H         -1.08820        12.52326         1.01608
H         -0.98743        14.77642         0.14379
H         -0.93561        16.54807        -0.57732
H         -0.86967        18.86764        -1.26316
H         -0.87490        20.76015        -1.15691
H         -0.85634        23.12231        -0.69845
H         -0.85758        25.02665        -1.22861
H         -0.94321        27.43246        -0.95912
H         -0.95695        29.30673        -0.89034
H         -1.02078        31.71165        -0.95240
H         -1.05385        33.67734        -0.78369
H         -0.95552        36.11340        -1.17707
H          0.31550        38.20832        -1.25780
H          3.52615         2.47845         0.06601
H          2.47019        39.43590        -1.04254
H          5.98753         2.43448         0.03680
H          4.87644        39.44745        -0.57195
H          8.44101         2.39818         0.08419
H          7.24765        38.87851         1.16569
H         11.06515         2.37830         0.05572
H          9.74597        39.47483        -0.35617
H         13.48377         2.34455        -0.19252
H         12.24179        39.45579        -0.50376
H         15.97804         2.31933        -0.41253
H         14.72165        39.42610        -0.50498
H         18.43344         2.28427        -0.53164
H         17.13480        39.42408        -0.60169
H         20.60556         3.47602        -0.59683
H         21.89428         5.62239        -0.68099
H         21.93824         8.07259        -0.66471
H         21.96529         9.96509        -0.61795
H         21.99982        12.40611        -0.64615
H         21.92636        14.29035         0.20289
H         21.93173        16.72686         0.22558
H         21.97274        18.62498         0.19545
H         21.94844        21.03069         0.47396
H         21.95304        22.92745         0.66844
H         21.91279        25.32568         1.07549
H         21.94775        27.26362         0.90839
H         21.89941        29.59266         0.30153
H         21.87777        31.49554         0.19059
H         21.84884        33.87678        -0.31171
H         21.88187        35.80307        -0.65241
H         21.78710        38.24364        -0.47640
H         19.61385        39.46352        -0.62131
