         429
 CSIRO Nanostructure Databank - Neutral Graphene Oxide Data Set
C          1.26666         3.44204        -0.04644
C          0.07125         4.14282        -0.15750
C          1.22408         6.25989         0.25507
C          0.04340         5.53490        -0.02816
C          1.22612         7.72719         0.34692
C          0.06003         8.47611         0.37605
C          1.22897        10.63304         0.29927
C          0.06471         9.89817         0.42381
C          1.26774        12.08445         0.41969
C          0.08913        12.83903         0.34062
C          1.27600        14.92439         0.77580
C          0.10441        14.23413         0.44918
C          1.28862        16.39278         0.65113
C          0.12687        17.13928         0.93576
C          1.18025        19.21657         0.20360
C          0.06294        18.50634         0.69300
C          1.12514        20.65023        -0.09093
C         -0.08243        21.36520        -0.08498
C          1.06445        23.49583        -0.44689
C         -0.11543        22.74739        -0.27283
C          1.05613        24.94777        -0.54019
C         -0.14992        25.69776        -0.50067
C          1.05989        27.82483        -0.56689
C         -0.15196        27.07806        -0.53067
C          1.08063        29.25516        -0.58045
C         -0.12324        30.06054        -0.48793
C          1.15845        32.09080        -1.13837
C         -0.10018        31.40396        -0.66444
C          1.19813        33.58956        -0.94036
C          0.06625        34.36663        -1.22561
C          1.31646        36.42452        -0.84333
C          0.11654        35.75766        -1.17469
C          1.39492        37.86231        -0.86105
C          3.72064         3.43923         0.26642
C          2.47914         4.13618         0.20684
C          3.68408         6.25686         0.83397
C          2.43502         5.55146         0.37506
C          3.68984         7.73597         0.50913
C          2.49847         8.42092         0.35863
C          3.78714        10.66059         0.32074
C          2.49666         9.89374         0.14542
C          3.76400        12.10536         0.66158
C          2.50353        12.77458         0.68731
C          3.67921        14.76448         1.48068
C          2.46350        14.16235         1.02245
C          3.69758        16.45715        -0.30466
C          2.41490        17.09825         0.15894
C          3.64507        19.17298        -0.47092
C          2.38111        18.49373         0.01234
C          3.59010        20.67481        -0.30730
C          2.33681        21.36414        -0.34385
C          3.53023        23.49997        -0.69618
C          2.30804        22.78863        -0.48659
C          3.52603        24.94733        -0.76325
C          2.28181        25.66174        -0.63783
C          3.53544        27.79670        -0.59573
C          2.29195        27.09165        -0.61728
C          3.55781        29.21132        -0.50121
C          2.32865        29.94678        -0.57294
C          3.57457        32.05363        -0.32351
C          2.37695        31.36372        -0.62842
C          3.58352        33.46904        -0.28152
C          2.41218        34.23348        -0.58809
C          3.70847        36.33621        -0.21616
C          2.47133        35.66222        -0.52487
C          3.77114        37.76699        -0.31395
C          2.57549        38.50483        -0.62803
C          6.21477         3.43143         0.27879
C          4.96205         4.13438         0.28879
C          6.13975         6.31792         0.17240
C          4.93305         5.54537         0.38799
C          6.14454         7.75814         0.50320
C          4.95557         8.43150         0.62543
C          6.21666        10.64128         1.14579
C          4.95001         9.89790         0.85445
C          6.32963        12.09840         0.65921
C          4.97038        12.80694         0.82509
C          6.15495        15.02469         1.15929
C          4.92241        14.17994         1.19247
C          6.14976        16.41420         0.58229
C          4.94507        17.13760         0.21517
C          6.07075        19.33210         0.44803
C          4.88681        18.52172         0.14122
C          6.06113        20.85090         0.23552
C          4.77138        21.40259        -0.32943
C          6.00421        23.43712        -1.02360
C          4.74748        22.78792        -0.64157
C          5.98658        24.96267        -1.12393
C          4.73124        25.66299        -0.83676
C          6.00935        27.78164        -0.65494
C          4.77368        27.08342        -0.68188
C          6.03062        29.19715        -0.45444
C          4.79504        29.90544        -0.37065
C          6.02780        31.96032         0.16177
C          4.80745        31.31247        -0.13957
C          5.98300        33.34711         0.65864
C          4.74095        34.14989         0.31188
C          6.10721        36.26081         0.36445
C          4.85405        35.61309         0.17398
C          6.16344        37.68604         0.20136
C          4.99076        38.41352        -0.10164
C          8.68862         3.43583         0.52314
C          7.45288         4.09203         0.35175
C          8.70963         6.30647         0.42951
C          7.46638         5.55731         0.16382
C          8.69743         7.72263         0.47821
C          7.43093         8.39953         0.84258
C          8.86654        10.52006         1.33220
C          7.47970         9.83656         1.27441
C          8.80989        12.07156         1.30589
C          7.46361        12.78912         1.57149
C          8.67445        14.97029         0.71085
C          7.47182        14.30628         1.27877
C          8.64736        16.40773         0.48889
C          7.38051        17.08182         0.48057
C          8.60564        19.22624        -0.06304
C          7.39713        18.55611         0.43260
C          8.48312        20.57166        -0.64606
C          7.28453        21.38923        -0.47338
C          8.50936        23.42682        -1.14207
C          7.29643        22.72036        -0.87439
C          8.50665        24.93570        -1.39844
C          7.25158        25.66609        -0.98428
C          8.49213        27.76492        -0.74267
C          7.26070        27.04921        -0.77191
C          8.49921        29.22476        -0.75249
C          7.25381        29.93308        -0.39632
C          8.53447        32.03229         0.17887
C          7.27338        31.29636        -0.03885
C          8.53172        33.31745         0.67842
C          7.27199        34.06349         1.07917
C          8.51797        36.23881         0.77848
C          7.31239        35.54096         0.66593
C          8.55418        37.66419         0.68606
C          7.39759        38.36330         0.40104
C         11.13664         3.50108         0.86388
C          9.92999         4.14505         0.63050
C         11.13342         6.33987         0.45218
C          9.91213         5.60277         0.53736
C         11.09033         7.72074         0.07610
C          9.86627         8.47252         0.21497
C         10.66908        10.76008        -0.43933
C          9.79270         9.93664         0.27443
C         10.97969        12.12122        -0.15392
C          9.94386        12.81266         0.67594
C         11.14680        14.98418         0.55568
C          9.82959        14.27551         0.48874
C         11.09967        16.41838         0.10481
C          9.84107        17.10400         0.16214
C         11.03546        19.19087        -0.52172
C          9.80131        18.51458        -0.17519
C         11.04858        20.58444        -0.81127
C          9.77728        21.29410        -1.04234
C         10.98890        23.45103        -1.25003
C          9.75260        22.76629        -1.08330
C         10.98191        24.90269        -1.28852
C          9.72414        25.50786        -0.66343
C         11.04914        27.78293        -0.53177
C          9.73553        27.03031        -0.52854
C         11.07394        29.23718        -0.55562
C          9.82952        29.99630        -0.64891
C         11.02835        31.97819         0.16101
C          9.81716        31.37269        -0.09922
C         11.11668        33.25668         0.96317
C          9.79648        34.01440         1.04038
C         11.07532        36.25719         0.87591
C          9.79385        35.52209         1.06816
C         11.08084        37.66841         0.88066
C          9.79433        38.43062         1.08544
C         13.66586         3.54745         1.00653
C         12.37021         4.28031         1.23194
C         13.59625         6.32823         0.41282
C         12.37034         5.66395         0.63066
C         13.58909         7.68208        -0.04489
C         12.33719         8.31525        -0.30256
C         13.59070        10.15546        -1.29963
C         12.39546         9.49890        -1.05728
C         13.47580        12.33728        -0.98714
C         12.19576        12.87603        -0.46193
C         13.57117        14.90554         0.08441
C         12.27728        14.20957        -0.06518
C         13.57403        16.36986        -0.16771
C         12.29330        17.06144        -0.22360
C         13.47522        19.15540        -0.79170
C         12.27063        18.47781        -0.53486
C         13.49499        20.57075        -0.90608
C         12.25378        21.27607        -0.97815
C         13.56741        23.48942        -1.17890
C         12.24188        22.70987        -1.34686
C         13.56019        24.92864        -0.93057
C         12.33538        25.68289        -1.14091
C         13.51934        27.72893        -0.43877
C         12.31116        27.05988        -0.66759
C         13.51106        29.15078        -0.32304
C         12.30315        29.89208        -0.36746
C         13.49290        32.00017         0.08784
C         12.29497        31.31443        -0.08927
C         13.50204        33.42525         0.31604
C         12.31636        34.10643         0.57187
C         13.49699        36.28118         0.52478
C         12.29400        35.55153         0.68192
C         13.51812        37.70049         0.61766
C         12.28039        38.37568         0.77735
C         16.12575         3.52556         0.77328
C         14.86277         4.21567         0.80501
C         16.04992         6.36841         0.38545
C         14.84970         5.65347         0.55716
C         16.05758         7.73566        -0.00135
C         14.81508         8.38006        -0.25977
C         16.00663        10.52650        -0.80906
C         14.80966         9.71558        -0.77315
C         15.97431        11.97395        -0.83960
C         14.73670        12.75583        -0.60734
C         16.17003        14.86265        -0.13489
C         14.84306        14.12034        -0.01543
C         16.03988        16.32760        -0.51868
C         14.76259        17.00527        -0.48290
C         15.99432        19.17520        -0.83247
C         14.73414        18.38884        -1.08765
C         15.97183        20.58764        -0.77871
C         14.73308        21.27839        -0.86124
C         15.98999        23.45467        -0.62298
C         14.68259        22.73016        -0.50087
C         15.98455        24.83841        -0.40269
C         14.72165        25.58177        -0.45118
C         15.98053        27.70578        -0.03045
C         14.75710        26.99526        -0.34643
C         16.01412        29.07372         0.02301
C         14.79958        29.84031        -0.31624
C         16.03341        31.99592         0.32589
C         14.78663        31.33456        -0.12810
C         15.98109        33.43255         0.39057
C         14.77774        34.10649         0.27155
C         16.04043        36.34188         0.11858
C         14.74591        35.58044         0.18612
C         16.00745        37.76324         0.54541
C         14.76062        38.40754         0.64188
C         18.59893         3.55116         0.59750
C         17.34014         4.20605         0.67492
C         18.60943         6.41017         0.18703
C         17.32464         5.68155         0.62518
C         18.48468         7.73301        -0.42530
C         17.27480         8.41980        -0.38339
C         18.46790        10.52834        -0.96236
C         17.23387         9.83149        -0.74808
C         18.44913        11.95560        -1.03322
C         17.20841        12.64734        -0.87788
C         18.45941        14.87992        -1.27657
C         17.19551        14.13160        -0.97892
C         18.50536        16.40830        -1.20413
C         17.20452        17.03231        -0.74615
C         18.43455        19.18146        -0.54182
C         17.21626        18.48657        -0.72424
C         18.44478        20.60464        -0.58213
C         17.21300        21.30474        -0.67004
C         18.43658        23.45922        -0.70048
C         17.20959        22.73774        -0.65452
C         18.36171        24.89006        -0.78454
C         17.20589        25.56607        -0.35054
C         18.49174        27.63872         0.53790
C         17.16841        26.88504         0.42548
C         18.48792        29.05316         0.53663
C         17.16297        29.77364         0.71277
C         18.46421        31.98382         0.68100
C         17.20246        31.28032         0.52057
C         18.48646        33.39955         0.75254
C         17.20444        34.19786         0.84193
C         18.51684        36.29823         0.74338
C         17.36142        35.55275         0.11625
C         18.44800        37.69436         0.98995
C         17.21145        38.40678         0.86179
C         19.77625         4.22692         0.25028
C         20.96214         6.27122        -0.57359
C         19.80250         5.59215        -0.06277
C         20.91697         7.55142        -1.02966
C         19.62258         8.29119        -1.25016
C         20.86029        10.52215        -1.36324
C         19.68958         9.80798        -1.12987
C         20.86143        11.92673        -1.38140
C         19.68670        12.66288        -1.21135
C         20.83223        14.79550        -0.68301
C         19.72708        14.12646        -1.14258
C         20.81297        16.20005        -0.33915
C         19.71481        16.97921        -0.50375
C         20.91670        19.21875        -0.30853
C         19.65672        18.43031        -0.05160
C         20.91061        20.56698        -0.40723
C         19.68416        21.34816        -0.47897
C         20.88537        23.50696        -0.10873
C         19.67881        22.75718        -0.49045
C         20.94698        24.67252         0.58290
C         19.79617        25.47147         1.14490
C         20.90169        27.68365         0.85898
C         19.70735        26.94474         0.80323
C         20.90305        29.06821         0.74358
C         19.69526        29.78728         0.64432
C         20.89342        31.98582         0.74513
C         19.68952        31.25708         0.69068
C         20.90537        33.37439         0.81959
C         19.70309        34.10637         0.84798
C         20.81987        36.26506         1.50630
C         19.69241        35.57370         1.01972
C         20.77527        37.64949         1.70645
C         19.60673        38.36115         1.46481
O          7.39989         8.80088         2.28493
O         10.32433        27.38098         0.79966
O          8.96149        20.62838        -2.05041
O         19.01903        24.95662         1.94502
O          9.91391        12.55254         2.14939
O          6.83953         5.97971        -1.08837
O          3.73785        15.60117        -1.17251
O         13.14003        23.02774        -2.47692
O         17.49986        14.53398        -2.35099
O          5.27385        10.37330         2.21609
O         15.29526        36.09696        -1.11644
O         11.59633        25.54048        -2.42020
O          9.15188        29.82370        -1.94676
O          3.33269        10.31281        -1.00970
O         18.17215         6.35462         1.59710
O          5.92607        24.10561        -2.33326
O         13.45792        11.36052        -1.99903
O          6.93213        15.04916         2.43155
O          6.81841        12.13768        -0.62588
O         14.26264        14.36729         1.30793
O          9.73241        34.74977         2.32086
O         14.95018        30.75742        -1.48015
O         11.26413        10.13235        -1.55963
O          4.95824        33.58774         1.68178
O          6.77138        19.04178         1.69759
O          9.67214        38.76594         2.48523
H          9.59436        37.92872         2.98890
O          3.73405        18.96683        -1.91731
H          3.65251        18.00460        -2.09672
O         19.38043        25.60695        -1.34067
H         20.07403        25.00052        -1.67069
O         18.63952        16.86707        -2.58860
H         18.01729        16.31817        -3.11972
O          7.28005        34.07299         2.53135
H          6.33648        34.11692         2.81514
O         19.51361        18.37034         1.41284
H         19.48352        19.29285         1.74450
O          6.09108        21.46496         1.56586
H          6.55241        20.82525         2.16026
O         16.82837        26.52691         1.80542
H         17.51827        25.88087         2.11710
O          7.13274        12.56835         2.93250
H          6.86253        13.43883         3.31479
O         11.44583        15.03616         1.99390
H         11.25506        14.14689         2.37135
O         14.31183        22.77005         0.92915
H         15.06712        22.41439         1.44402
O          3.61731        15.91511         2.20645
H          4.51488        16.16430         2.51179
O          3.68730         6.15891         2.31087
H          2.89894         6.64343         2.63653
O         17.72619        35.29148        -1.25297
H         16.89829        35.36127        -1.78613
O         16.97781        34.52148         2.24737
H         16.93878        33.68011         2.74950
O         11.41388        32.79470         2.32012
H         11.00827        33.45631         2.92923
O          9.46129        10.14686         2.58983
H          8.86990        10.46264         3.30548
O         19.26620         8.02950        -2.65927
H         18.48735         8.58654        -2.87359
O         12.30065         4.47994         2.70849
H         13.03408         5.08256         2.95766
O         16.77611        14.85173         1.18878
H         16.03173        14.89829         1.83548
O          1.17755        31.91030        -2.60840
H          1.17495        30.94392        -2.77973
O          9.64729        24.95977         0.67453
H         10.00194        25.64942         1.28759
O         14.70204        18.14809        -2.54954
H         14.65756        19.02454        -2.98887
O          8.66132        25.15515        -2.81768
H          7.86512        24.77885        -3.25568
O         16.86205        29.60727         2.15060
H         16.80102        28.63639         2.32219
H          1.28428         2.34950        -0.16683
H         -0.86218         3.60131        -0.36559
H         -0.91132         6.06238        -0.15746
H         -0.91577         7.97167         0.40486
H         -0.90052        10.40543         0.55985
H         -0.86282        12.34478         0.10297
H         -0.81575        14.79367         0.23042
H         -0.75485        16.63055         1.35030
H         -0.87616        19.03563         0.90430
H         -1.03244        20.83890         0.08100
H         -1.09169        23.24999        -0.25192
H         -1.11549        25.17649        -0.45078
H         -1.11594        27.60433        -0.50994
H         -1.07318        29.56937        -0.23199
H         -1.03149        31.98271        -0.57878
H         -0.87137        33.87471        -1.51993
H         -0.77695        36.34866        -1.42196
H          0.48627        38.43457        -1.09832
H          3.72078         2.34224         0.18583
H          2.63322        39.60203        -0.67350
H          6.19109         2.33227         0.32060
H          5.04759        39.50918        -0.18262
H          8.70112         2.33857         0.60961
H          7.41893        39.46181         0.34856
H         11.16761         2.40304         0.93158
H          9.83721        39.40189         0.53097
H         13.68271         2.46216         1.19228
H         12.26612        39.47435         0.82394
H         16.12604         2.42774         0.84824
H         14.73955        39.48553         0.86340
H         18.63193         2.46034         0.73288
H         17.19146        39.47315         1.13389
H         20.70188         3.64384         0.13255
H         21.92084         5.72959        -0.56772
H         21.84290         8.01118        -1.40354
H         21.80915         9.99579        -1.53395
H         21.81200        12.45011        -1.55467
H         21.75503        14.23910        -0.46503
H         21.71832        16.61085         0.13196
H         21.87912        18.68547        -0.30267
H         21.87253        21.09146        -0.50856
H         21.85238        23.04301        -0.36684
H         21.95020        25.08625         0.77639
H         21.85397        27.16500         1.04022
H         21.86544        29.59141         0.80691
H         21.85921        31.46408         0.72902
H         21.87195        33.89511         0.85636
H         21.74467        35.72082         1.74229
H         21.66721        38.17209         2.07940
H         19.56563        39.44324         1.65463
