         252
 CSIRO Nanostructure Databank - Neutral Graphene Oxide Data Set
C         30.64047        32.23918        -1.41147
C         30.43648        33.09702        -0.49096
C         30.39218        36.04331         0.04162
C         30.56721        37.24411        -0.19630
C         30.65515        40.50730        -0.34147
C         30.63853        41.74912        -0.45486
C         32.92540        29.80308        -1.98479
C         31.88062        30.50678        -2.13762
C         32.85626        31.62390         0.32837
C         30.66347        31.13590        -2.21647
C         32.70017        32.96683         0.60648
C         31.37322        33.64512         0.49267
C         32.59429        35.95097         1.10048
C         31.32148        35.14300         0.74781
C         32.68202        37.42819         0.87089
C         31.55501        38.19511         0.20617
C         32.71686        40.29835         0.85889
C         31.58395        39.55070         0.17430
C         32.82771        41.75766         0.53031
C         31.50935        42.58575         0.48524
C         32.89255        44.67788         0.03327
C         31.87146        43.97448         0.06127
C         35.69373        28.18649        -2.14687
C         35.52435        29.52545        -1.56670
C         34.17713        30.21361        -1.32413
C         35.31671        31.68050         0.33410
C         34.14719        31.12529        -0.15496
C         35.20542        32.92348         1.14511
C         33.89309        33.69961         1.10898
C         35.18149        35.93529         1.36331
C         33.88309        35.18907         1.32390
C         35.23011        37.29845         1.24513
C         34.04396        38.09372         0.71683
C         35.27857        40.32339         1.39102
C         33.96975        39.54522         1.19344
C         35.32186        41.57547         0.48841
C         34.08409        42.12331         0.04224
C         35.48052        44.68064         0.30274
C         34.24988        44.30654        -0.21916
C         35.74994        46.00736         0.84384
C         37.85426        27.69710        -1.11657
C         36.63047        27.44317        -1.80599
C         37.85166        29.06764        -0.61983
C         36.68382        29.88503        -0.69945
C         37.80662        31.65475         0.58142
C         36.62360        31.10909         0.03515
C         37.80111        32.88142         1.47219
C         36.46355        33.64806         1.51171
C         37.71597        35.86330         1.85828
C         36.49412        35.15432         1.23597
C         37.73552        37.32484         1.40968
C         36.50702        38.03933         1.25980
C         37.77694        40.15768         1.07552
C         36.50190        39.44638         1.17337
C         37.80693        41.64054         0.71372
C         36.51130        42.35694         0.43126
C         38.01516        44.37333         0.60333
C         36.61058        43.77118         0.30657
C         38.11384        45.86516         0.22384
C         36.90218        46.46670         0.50882
C         40.40251        25.04476        -1.60999
C         39.30200        25.53182        -1.27762
C         40.04200        27.45942        -0.16464
C         38.94181        26.85798        -0.83871
C         40.21431        28.83173        -0.01187
C         39.05273        29.63598        -0.08361
C         40.28375        31.55524         0.88557
C         39.06965        30.98471         0.44433
C         40.33127        32.95190         1.49449
C         39.03824        33.72207         1.07367
C         40.29479        35.87485         1.71989
C         38.99767        35.15567         1.48883
C         40.22923        37.28491         1.16739
C         38.99172        37.98503         1.16878
C         40.15224        39.95821         0.18831
C         38.98918        39.37571         0.89097
C         40.07918        41.29498        -0.48594
C         38.99742        42.20169        -0.00622
C         40.10797        44.19133        -0.94581
C         39.08185        43.55347        -0.08637
C         40.34271        45.64993        -0.86428
C         39.28017        46.43402        -0.35721
C         40.57036        48.36622        -1.03402
C         39.54121        47.84158        -0.51244
C         42.89520        25.28844        -2.44815
C         41.77636        25.40266        -1.55659
C         42.93885        27.57506        -0.86387
C         41.98695        26.51838        -0.69575
C         42.82028        28.82606        -0.19607
C         41.54746        29.34249         0.43921
C         42.85768        31.51886         1.22846
C         41.53705        30.77474         0.95840
C         42.84118        33.03552         1.06188
C         41.55971        33.75697         1.13405
C         42.82452        35.83682         0.94031
C         41.51780        35.11438         1.21368
C         42.80060        37.32912         1.18903
C         41.49306        38.04398         1.14304
C         42.75780        40.02518         0.00729
C         41.49773        39.43069         0.57103
C         42.70092        41.17728        -0.97915
C         41.34352        41.87876        -1.13282
C         42.25211        44.05687        -2.22671
C         41.15253        43.32177        -1.56754
C         42.51394        45.37547        -2.17052
C         41.72157        46.22166        -1.17852
C         42.85519        48.07818        -2.29891
C         41.70045        47.76762        -1.56225
C         43.96016        25.93234        -2.38327
C         45.38009        27.82311        -1.33367
C         44.07412        27.36002        -1.92506
C         45.24912        29.15711        -0.67355
C         43.95212        29.72516        -0.19636
C         45.31217        31.65575         0.66765
C         44.05640        30.93773         0.49858
C         45.32184        32.93594         1.50203
C         44.01938        33.68852         1.29458
C         45.28099        35.90797         1.64433
C         43.95812        35.14067         1.73158
C         45.30292        37.36357         1.18491
C         44.04479        38.02906         0.75764
C         45.29093        39.87923        -0.29682
C         44.02323        39.24143         0.13558
C         45.27731        41.32277        -0.68007
C         44.02350        41.86544        -1.19260
C         45.18776        43.94231        -1.90921
C         44.13808        42.96559        -2.02134
C         45.05694        45.23850        -2.43182
C         43.77529        45.85587        -2.99157
C         43.71741        47.34044        -2.81563
C         47.89023        27.87835        -1.33644
C         46.77097        27.59278        -1.77570
C         48.43545        28.88600        -0.44844
C         46.29904        30.20544        -0.96146
C         47.79472        31.85167         0.30251
C         46.50837        31.21360         0.10193
C         47.77749        33.15174         0.90838
C         46.55694        33.79893         1.25519
C         47.78696        35.93637         1.62654
C         46.56325        35.18221         1.51169
C         47.77668        37.40131         1.38845
C         46.60565        37.98166         0.90261
C         47.75882        40.17523         0.26055
C         46.59205        39.24803         0.12386
C         47.78386        41.42500        -0.56509
C         46.45004        42.03820        -0.82205
C         47.69562        44.32105        -1.18089
C         46.39646        43.47648        -1.17311
C         47.43632        45.52829        -1.97376
C         46.29709        45.93035        -2.28142
C         50.23339        30.03168        -1.76526
C         49.14448        30.01210        -0.83471
C         50.19854        32.19090        -0.16707
C         49.03077        31.34499        -0.20445
C         50.24777        33.23654         0.76307
C         49.00379        33.81484         1.18733
C         50.23289        35.64673         2.19162
C         48.97650        35.14216         1.71849
C         50.18541        37.83289         1.87219
C         49.01232        38.20312         1.29076
C         50.30412        40.39058         0.67460
C         49.01961        39.61848         0.80310
C         50.30588        41.65778         0.08634
C         49.08625        42.19195        -0.62814
C         50.00284        44.36266        -0.09155
C         49.07188        43.71116        -1.07637
C         51.30241        30.66510        -1.80120
C         52.56442        32.58586        -0.58334
C         51.33682        32.07720        -1.27486
C         52.59200        33.48826         0.26234
C         51.59406        33.74375         1.35170
C         52.44107        36.20107         1.93877
C         51.48870        35.14383         1.89063
C         52.57920        37.44702         1.99029
C         51.51497        38.29884         1.31058
C         52.54642        40.73119         1.23066
C         51.50038        39.79619         1.24818
C         52.63107        41.95140         0.95742
C         51.58933        42.55608         0.05358
C         51.04697        43.92777         0.40225
O         34.24644        43.12918        -0.96347
O         43.12246        43.22989        -2.95802
O         41.06177        26.64367         0.34917
O         33.66188        34.27426         2.44515
O         48.07827        40.41361         1.66293
O         38.01124        41.27579         2.08613
O         32.97546        39.83057         2.22431
O         35.10733        30.63610        -2.37696
O         30.81422        34.23831         1.71093
O         35.67160        33.01451         2.54234
O         42.24839        40.42201         1.33721
O         42.25823        37.84989         2.43248
O         46.85330        44.30101        -0.02581
O         50.17292        36.86450         2.87511
O         41.87521        40.98024        -2.15345
O         46.69077        30.37470        -2.10674
O         45.49391        27.92083         0.12296
O         39.92350        43.60419        -2.32751
O         46.09518        39.07259        -1.24156
O         48.65974        41.33825        -1.74174
O         41.50421        29.59842         1.86730
O         39.71709        40.07908        -1.22324
O         45.27059        36.97622         2.62735
O         32.36506        36.91618         2.18668
O         50.95840        32.97460        -2.28845
H         51.58501        32.89714        -3.03641
O         34.26667        38.15366        -0.72568
H         35.11689        38.61383        -0.89315
O         38.24838        44.25135         2.02039
H         37.48820        44.65602         2.48953
O         40.43525        35.99440         3.18349
H         41.20914        36.59468         3.33983
O         43.12987        35.73163        -0.47469
H         42.96257        34.80913        -0.76243
O         37.59579        35.80983         3.30112
H         38.48907        36.01210         3.67227
O         43.58667        35.09757         3.12000
H         44.00454        35.87224         3.56278
O         43.82608        28.23642        -3.02780
H         43.12755        27.85122        -3.59619
O         51.48174        37.88834        -0.08623
H         52.36343        38.06900        -0.47637
O         45.43114        32.58646         2.90297
H         44.60994        32.07559         3.13331
O         47.93068        28.80998         0.79932
H         47.18899        28.15293         0.83684
O         51.87019        32.86349         2.45103
H         52.71954        33.13258         2.85862
O         38.00853        32.38525         2.81781
H         37.11205        32.28328         3.22622
O         39.09346        33.72545        -0.39184
H         38.29429        34.21846        -0.70516
O         30.93716        42.58241         1.76292
H         30.05613        43.00707         1.73338
O         49.66279        43.79476        -2.35420
H         50.55990        43.38550        -2.30619
O         35.32553        40.78055         2.75662
H         34.42098        40.67225         3.13501
O         42.50231        46.19037         0.04787
H         42.01229        46.67515         0.74612
O         52.05961        42.63188        -1.27990
H         52.86734        43.18668        -1.30013
O         43.08189        31.34320         2.66221
H         42.29342        31.73762         3.11105
O         36.73406        35.16587        -0.21987
H         36.81767        36.10311        -0.50446
O         31.83855        30.74307         0.39282
H         31.03883        31.17126         0.76151
O         43.61927        45.51627        -4.35687
H         43.53380        44.53860        -4.42487
O         40.51404        32.75141         2.91373
H         39.66741        32.40475         3.29084
