         234
 CSIRO Nanostructure Databank - Neutral Graphene Oxide Data Set
C        -11.12125         0.72724        -0.79598
C         -9.88727         1.48628        -0.65103
C         -8.66306         0.82410        -0.71955
C         -7.37517         1.59074        -0.55240
C         -6.18804         0.71720        -0.19017
C         -4.96332         1.37815         0.32012
C         -3.65347         0.72600         0.03829
C         -2.49122         1.42468         0.22801
C         -1.24236         0.88075        -0.39467
C          0.07722         1.53541        -0.02041
C          1.26173         0.91465        -0.43325
C          2.58209         1.61959        -0.45868
C          3.68355         0.74936         0.16805
C          4.98375         1.52849         0.09908
C          6.24376         0.78011         0.25922
C          7.49052         1.45111        -0.16556
C          8.61929         0.74412        -0.57014
C          9.82080         1.46598        -0.96949
C         10.98237         0.66381        -1.28931
C         -9.91384         2.89955        -0.41708
C         -8.74827         3.61701        -0.08824
C         -7.54176         2.81870         0.36807
C         -6.25766         3.62217         0.39157
C         -5.00378         2.86644         0.60451
C         -3.72881         3.61026         0.60433
C         -2.48788         2.80585         0.76316
C         -1.17293         3.53098         0.86860
C          0.07257         2.87548         0.43630
C          1.27013         3.73782         0.11754
C          2.55953         2.98652         0.17949
C          3.74366         3.61693         0.38411
C          4.99414         2.88127         0.23951
C          6.30822         3.63971         0.30292
C          7.38591         2.87953        -0.43902
C          8.64928         3.65831        -0.82407
C          9.86498         2.85458        -0.95854
C         -8.69087         5.00812        -0.15151
C         -7.47134         5.74081         0.04491
C         -6.23291         4.98613         0.29295
C         -4.96083         5.71418         0.25155
C         -3.71046         4.97155         0.40955
C         -2.45915         5.73627         0.44984
C         -1.22982         5.03723         0.93296
C          0.04839         5.80980         0.95212
C          1.33222         5.09152         0.79516
C          2.50999         5.77138         0.86385
C          3.79169         5.04937         0.74392
C          5.04953         5.81396         0.48455
C          6.13079         5.06437        -0.27810
C          7.45145         5.81683        -0.33593
C          8.62876         5.11463        -0.56717
C         -7.43095         7.11244        -0.06193
C         -6.18555         7.88615         0.27327
C         -4.93470         7.07030         0.04230
C         -3.66354         7.73242        -0.43097
C         -2.42033         7.05476         0.09590
C         -1.12112         7.80547        -0.14660
C          0.03579         7.22979         0.60469
C          1.20908         8.01795         0.84655
C          2.57746         7.24442         1.03600
C          3.78472         7.97178         0.58061
C          4.97553         7.28154         0.31772
C          6.18472         7.96034        -0.03373
C          7.38898         7.23711        -0.25120
C         -6.11177         9.26302        -0.33135
C         -4.93011         9.90370        -0.46653
C         -3.65661         9.23527        -0.26269
C         -2.49134         9.93486        -0.07928
C         -1.20344         9.30680         0.06088
C         -0.04145        10.04250         0.21092
C          1.24209         9.42876         0.43474
C          2.46574        10.08144         0.34205
C          3.71818         9.38717         0.36962
C          4.93409        10.06265         0.04892
C          6.12483         9.38692        -0.12204
C        -11.14019        -0.61098        -1.02483
C         -9.90385        -1.36152        -1.30340
C         -8.59686        -0.57909        -1.14046
C         -7.39416        -1.34682        -0.77154
C         -6.17628        -0.61885        -0.45052
C         -4.90195        -1.41895        -0.62358
C         -3.62678        -0.68073        -0.32651
C         -2.45006        -1.39986        -0.44069
C         -1.19624        -0.64400        -0.46200
C         -0.05238        -1.09503        -1.05283
C          1.26600        -0.39974        -1.15419
C          2.49635        -1.35551        -0.84004
C          3.76267        -0.67658        -0.39541
C          4.93027        -1.37846        -0.22645
C          6.18056        -0.70748         0.26217
C          7.51567        -1.40114         0.15078
C          8.65055        -0.69130        -0.46336
C          9.77394        -1.43059        -0.84510
C         10.94773        -0.70233        -1.27143
C         -9.83283        -2.82725        -1.17324
C         -8.64477        -3.47730        -0.91086
C         -7.44960        -2.70926        -0.58745
C         -6.32866        -3.39314         0.10414
C         -4.97877        -2.74004         0.11651
C         -3.75006        -3.55077         0.18938
C         -2.55546        -2.91457        -0.46516
C         -1.37783        -3.84257        -0.66211
C         -0.03685        -3.31217        -0.97041
C          1.16121        -3.69758        -0.45122
C          2.42835        -2.90769        -0.68206
C          3.70010        -3.63722        -0.28075
C          4.99659        -2.85808        -0.25940
C          6.17719        -3.49210         0.37911
C          7.53489        -2.90031         0.25047
C          8.67406        -3.63298        -0.39311
C          9.73797        -2.87197        -0.85796
C         -8.51482        -4.92239        -0.95928
C         -7.42645        -5.59637        -0.44975
C         -6.49428        -4.84889         0.48643
C         -5.14445        -5.57024         0.79462
C         -3.80123        -4.90434         0.59745
C         -2.60702        -5.69174         0.65861
C         -1.39973        -5.21381        -0.06464
C         -0.06771        -5.86282         0.14085
C          1.27227        -5.19788        -0.18369
C          2.38488        -5.61982         0.75789
C          3.64542        -4.77013         0.76142
C          4.92469        -5.58624         0.79753
C          6.07515        -4.79614         0.84647
C          7.82335        -5.91322         0.12590
C          8.62459        -5.06683        -0.62160
C         -7.28902        -7.01408        -0.60804
C         -6.23424        -7.74763        -0.09243
C         -5.14788        -7.09035         0.67723
C         -3.87656        -7.87238         0.88993
C         -2.55533        -7.08228         1.11502
C         -1.24791        -7.87929         1.25615
C         -0.00316        -7.17993         0.80425
C          1.17940        -7.86225         0.88347
C          2.42827        -7.08031         1.08661
C          3.72909        -7.82726         1.17846
C          5.03999        -7.05384         0.98924
C          6.21065        -7.80985         0.41511
C          7.38578        -7.25857        -0.11203
C         -6.07480        -9.13732        -0.41405
C         -4.90978        -9.83798        -0.18771
C         -3.75299        -9.24950         0.41220
C         -2.51511        -9.92592         0.43488
C         -1.28851        -9.30979         0.74394
C         -0.05064        -9.98935         0.69964
C          1.18094        -9.31551         0.88415
C          2.44349        -9.95688         0.77706
C          3.66019        -9.26685         0.82987
C          4.88742        -9.92196         0.52019
C          6.05679        -9.23182         0.28963
O          1.87652         7.78202         2.15293
O         -5.43566        -6.40923         1.93919
O         -3.63212         7.52968        -1.90358
H         -3.82644         6.58261        -2.07438
O          1.71082        -5.75165        -1.45441
H          0.91649        -5.80471        -2.03547
O          2.63533        -2.26707        -1.97353
O          3.60328        -4.00660         2.00588
H          3.34999        -4.64292         2.71613
O          3.35786         0.58695         1.57007
H          4.18660         0.29451         2.02254
O         -4.86471        -1.77327        -2.03908
H         -4.48954        -1.02079        -2.54218
O          6.78003         3.70804         1.66155
H          6.08863         4.17341         2.19374
O          7.26609        -5.37488         1.30056
O         -1.40929         1.27487        -1.81429
H         -0.62284         0.94709        -2.30951
O          1.09349         4.09215        -1.31381
H          1.65915         3.46778        -1.83345
O         -7.24886        -4.81676         1.72451
H         -6.75814        -4.23015         2.34184
O         -0.85187         7.60819        -1.58585
H         -1.71297         7.75556        -2.05151
O          1.39998        -0.11060        -2.59465
H          1.60243        -0.98228        -3.01611
O         -1.01723        -8.03057         2.69625
H         -1.90035        -8.17728         3.11081
O         -6.24148         8.12092         1.73139
H         -6.31199         7.24493         2.16799
O         -0.86534        -6.14882        -1.10242
O          4.59668        -3.70919        -1.41462
O          2.93553         1.90240        -1.85076
H          2.55655         1.18133        -2.41797
O         -7.81532         2.36027         1.70971
H         -6.96088         2.02993         2.08405
O         -5.10489         1.86503         1.70589
O          2.09720        -6.05036         2.10987
O         -7.03955         2.12945        -1.87321
H         -7.22292         1.43241        -2.53924
O          7.60624         3.25128        -1.82919
O          5.60101         4.96486        -1.61896
H          6.24797         4.43372        -2.14744
O         -0.07716        -2.23677        -1.84842
O         -1.80552         2.91748         2.06116
O          7.90835        -2.07592         1.40376
O         -0.72198         5.52872         2.21427
O          6.12916         0.02258         1.54135
O          4.74409         5.36611         1.84347
O         -3.38808        -7.52796         2.21682
O         -9.15262        -0.84994        -2.47321
O         -2.31608        -3.59988        -1.75671
O         -5.83291        -2.65301         1.29598
O          4.57975        -7.52054         2.31587
H         11.84225        -1.27533        -1.55709
H         11.90372         1.18322        -1.59184
H         10.83219         3.36794        -1.07199
H          9.58738         5.65685        -0.58544
H          8.31201         7.81217        -0.42609
H          7.04081         9.94399        -0.36611
H          4.90773        11.15498        -0.07765
H          2.48013        11.15358         0.09297
H         -0.09333        11.14226         0.17579
H         -2.53597        11.03351        -0.00591
H         -4.90986        10.96601        -0.75728
H         -7.05615         9.79968        -0.50703
H         -8.36199         7.67030        -0.24733
H         -9.59374         5.57089        -0.43624
H        -10.85645         3.44473        -0.58019
H        -12.06729         1.26077        -0.62030
H        -12.09123        -1.16374        -0.99131
H        -10.76100        -3.40897        -1.28123
H         -9.30510        -5.48986        -1.47518
H         -8.03795        -7.53437        -1.22602
H         -6.90731        -9.64034        -0.92793
H         -4.84142       -10.88449        -0.51929
H         -2.50103       -10.97638         0.10246
H         -0.03907       -11.06790         0.47727
H          2.47014       -11.04037         0.58184
H          4.87130       -11.01136         0.36820
H          6.94218        -9.80210        -0.02975
H          8.02487        -7.91976        -0.72014
H          9.20837        -5.47513        -1.46108
H         10.61189        -3.39351        -1.27854
