         615
 CSIRO Nanostructure Databank - Neutral Graphene Oxide Data Set
C         23.00592        69.57909         1.66996
C         22.97836        70.97129         1.67960
C         21.74417        71.69244         1.81919
C         22.91913        73.80660         1.52366
C         21.72197        73.06020         1.76030
C         25.52822        65.36293         1.15220
C         25.50524        66.74178         1.31786
C         24.26843        67.47309         1.45642
C         25.50624        69.62547         1.80778
C         24.23138        68.84709         1.58194
C         25.41207        71.07011         1.35777
C         24.20588        71.73462         1.46341
C         25.35919        74.01267         1.03709
C         24.13001        73.18094         1.35718
C         28.00014        61.17616         0.20112
C         27.99173        62.57033         0.45285
C         26.77471        63.26112         0.71361
C         27.98397        65.38186         0.87747
C         26.75191        64.64886         0.92384
C         27.97373        66.79529         1.03686
C         26.74734        67.48687         1.26693
C         27.95736        69.59834         1.22342
C         26.75046        68.89037         1.37398
C         27.93949        71.07761         1.10436
C         26.65603        71.82394         1.10369
C         27.83350        73.98064         1.45578
C         26.67362        73.30289         1.28851
C         30.58722        56.97618        -0.59763
C         30.55998        58.36307        -0.31216
C         29.32582        59.00586        -0.10947
C         30.56604        61.20421         0.17025
C         29.22956        60.40405         0.24907
C         30.43820        62.66188        -0.20273
C         29.21301        63.31872         0.38372
C         30.44545        65.46212         0.52248
C         29.21202        64.70461         0.60182
C         30.43109        66.83792         0.69467
C         29.19573        67.52543         0.93728
C         30.47037        69.67934         0.80344
C         29.17601        68.93553         1.02759
C         30.46166        71.12827         1.20208
C         29.19092        71.78600         1.49217
C         30.41888        73.98806         1.43701
C         29.14610        73.30433         1.65590
C         32.92732        52.80204        -1.47290
C         32.96331        54.20918        -1.49899
C         31.76670        54.91778        -1.25072
C         33.02561        56.98910        -1.02179
C         31.78169        56.29655        -0.96254
C         33.11497        58.36012        -0.40696
C         31.80333        59.11145        -0.35171
C         32.97920        61.29320        -0.41744
C         31.79861        60.49692        -0.24868
C         32.95952        62.68754        -0.18337
C         31.73149        63.39789         0.05572
C         32.93559        65.51846         0.35497
C         31.70541        64.77015         0.29366
C         32.95878        66.92092         0.54713
C         31.66703        67.68258         0.50119
C         32.93801        69.72986         1.22786
C         31.66089        68.93178         1.39797
C         32.91360        71.12314         1.27080
C         31.64567        71.82954         1.34102
C         32.86209        73.98880         1.20714
C         31.62079        73.29013         1.38248
C         35.33318        48.54796        -0.93769
C         35.31858        49.93019        -1.23723
C         34.11766        50.66406        -1.33392
C         35.35008        52.74863        -1.87619
C         34.12032        52.06329        -1.55792
C         35.43850        54.19537        -1.86777
C         34.21859        54.90991        -1.64547
C         35.42256        57.08000        -1.58228
C         34.20849        56.33066        -1.43551
C         35.37229        58.52836        -1.46260
C         34.25490        59.15613        -0.98475
C         35.50106        61.38961        -1.02389
C         34.20257        60.62707        -0.93486
C         35.48086        62.79404        -0.50118
C         34.17868        63.44954        -0.18250
C         35.35217        65.66377        -0.03340
C         34.15323        64.80229         0.11424
C         35.41535        66.79234         0.98572
C         34.16878        67.64201         0.80889
C         35.41666        69.76761         1.49426
C         34.16573        69.00784         1.09962
C         35.35139        71.21736         1.00479
C         34.14650        71.87449         1.08978
C         35.29276        74.07945         0.91903
C         34.08092        73.33742         1.02375
C         37.67440        44.27908         0.07701
C         37.72865        45.76472        -0.21786
C         36.54673        46.45062        -0.48825
C         37.79190        48.55738        -0.77040
C         36.55300        47.85123        -0.74812
C         37.84738        49.92968        -1.32942
C         36.55008        50.58558        -1.59222
C         38.25544        52.99969        -1.78315
C         36.45237        51.88337        -2.10473
C         37.97860        54.36598        -1.55632
C         36.68677        54.95255        -1.82187
C         37.87431        57.12776        -1.53681
C         36.64650        56.38112        -1.75399
C         37.81398        58.56154        -1.55308
C         36.58000        59.30112        -1.97507
C         37.63473        61.72154        -2.31452
C         36.83877        60.72240        -1.37672
C         37.77338        63.08144        -1.64415
C         36.62075        63.65448        -0.91728
C         37.82626        65.82638        -0.57861
C         36.54230        65.12593        -0.72117
C         37.85839        67.04855         0.04049
C         36.82330        67.49727         1.06275
C         37.92777        69.86264         0.75274
C         36.75122        69.05388         1.21719
C         37.85890        71.32282         0.55870
C         36.51450        71.96772         0.40177
C         37.73900        74.15391         0.63172
C         36.52727        73.44876         0.70879
C         40.34705        40.07211         0.24830
C         40.29404        41.49412         0.16493
C         39.06576        42.18468         0.01461
C         40.21457        44.31286         0.21362
C         39.01887        43.57870         0.05876
C         40.15150        45.78103         0.34973
C         38.93159        46.49006        -0.08664
C         40.18073        48.64538        -0.12321
C         38.97332        47.89539        -0.33064
C         40.05862        50.14473        -0.00680
C         39.13577        50.77082        -1.04417
C         40.16558        52.99147        -0.31508
C         39.16857        52.25468        -1.03843
C         40.10805        54.39633        -0.30467
C         39.01438        55.10098        -0.89103
C         39.94657        57.32184        -0.05076
C         38.97051        56.52368        -0.92931
C         39.99208        58.89131        -0.25762
C         38.61271        59.33928        -0.75443
C         40.14297        61.57121        -1.74304
C         39.01134        61.09415        -2.58439
C         40.19780        62.93269        -1.49895
C         38.98228        63.71948        -1.49327
C         40.26357        65.61740        -0.33294
C         39.06124        65.21881        -1.21941
C         40.30508        67.11693        -0.28445
C         39.12146        67.79082         0.02340
C         40.29926        69.93453         0.00928
C         39.12800        69.18929         0.22038
C         40.28764        71.37215         0.15042
C         39.01668        72.04340         0.37416
C         40.19535        74.20996         0.34924
C         38.99348        73.50533         0.41952
C         42.86523        35.84531         0.69391
C         42.81592        37.22068         0.77830
C         41.47118        37.90548         0.72931
C         42.75509        40.11400         0.65856
C         41.53289        39.40056         0.51942
C         42.74331        41.54209         0.50489
C         41.50416        42.23477         0.30226
C         42.70791        44.40219         0.37109
C         41.46875        43.65725         0.30741
C         42.72604        45.81737         0.31050
C         41.44352        46.54615         0.39232
C         42.61406        48.69864         0.22775
C         41.41082        47.99993         0.12419
C         42.58807        50.15201         0.43774
C         41.36705        50.89135         0.10685
C         42.60780        53.01221         0.28374
C         41.37497        52.27548         0.09943
C         42.56931        54.48047         0.39517
C         41.25693        55.19280         0.19843
C         42.51413        57.16788        -0.75644
C         41.28243        56.63474        -0.10793
C         42.52389        58.67258        -0.91682
C         41.26281        59.39635        -1.05732
C         42.57349        61.42507        -1.78011
C         41.29893        60.72804        -1.47728
C         42.67061        62.86612        -1.55257
C         41.47775        63.47773        -0.87503
C         42.66160        65.70241        -1.12911
C         41.52545        64.97495        -0.82530
C         42.65762        67.13821        -0.95583
C         41.51037        67.82660        -0.50189
C         42.70030        69.99979        -0.46886
C         41.50261        69.26053        -0.35466
C         42.69806        71.42426        -0.30713
C         41.45541        72.10555        -0.03911
C         42.63868        74.26185        -0.00817
C         41.45720        73.55795         0.10850
C         45.34151        33.04966         0.91410
C         44.14433        33.72053         0.73536
C         45.28213        35.85747         1.14883
C         44.09334        35.13317         0.84738
C         45.24631        37.29643         1.18257
C         44.01992        37.97574         0.97092
C         45.19848        40.12811         1.06467
C         43.99480        39.41389         0.91630
C         45.17205        41.59764         0.99590
C         43.94000        42.28410         0.58889
C         45.17420        44.43795         0.32868
C         43.94934        43.70660         0.43501
C         45.17800        45.82957         0.18370
C         43.93766        46.52432         0.21022
C         45.19232        48.76963         0.16112
C         43.90089        48.00116         0.08295
C         45.17722        50.21689         0.48476
C         43.87530        50.91738         0.58837
C         45.05358        53.12543         0.63611
C         43.83844        52.38353         0.43777
C         45.08395        54.53009         0.50826
C         43.84000        55.22885         0.23340
C         45.01774        57.28500        -0.27042
C         43.79631        56.54491        -0.20865
C         45.02690        58.63189        -0.75056
C         43.78139        59.26971        -1.11915
C         45.11649        61.41787        -1.55416
C         43.87511        60.63887        -1.63997
C         45.10055        62.80983        -1.80319
C         43.87656        63.55466        -1.67298
C         45.10134        65.71343        -1.53397
C         43.91311        65.01505        -1.49000
C         45.16269        67.19209        -1.47056
C         43.85580        67.92929        -1.22712
C         45.14180        69.97056        -0.59449
C         43.92074        69.32058        -0.74917
C         45.14235        71.39584        -0.34286
C         43.90838        72.12202        -0.37454
C         45.17392        74.22102         0.11465
C         43.92297        73.62384        -0.46821
C         46.51285        33.76064         1.23904
C         47.73982        35.86982         1.81014
C         46.49312        35.14625         1.36461
C         47.71264        37.35822         1.54826
C         46.46474        38.03619         1.33796
C         47.68893        40.18052         1.22564
C         46.44579        39.45412         1.23049
C         47.72837        41.57488         0.96122
C         46.46682        42.34773         0.88937
C         47.69782        44.46165         0.43713
C         46.45563        43.66409         0.13134
C         47.70144        45.83046         0.41289
C         46.47761        46.56920        -0.07315
C         47.60747        48.70528         0.66061
C         46.46411        48.02967         0.33162
C         47.58899        50.15367         1.13212
C         46.31962        50.89678         0.75685
C         47.60488        53.11987         0.91769
C         46.27692        52.36887         0.96976
C         47.58507        54.58406         0.66930
C         46.33279        55.27420         0.55893
C         47.27768        57.59402         0.44895
C         46.20629        56.68882         0.25575
C         47.44982        58.77605        -0.27540
C         46.27316        59.35136        -0.87025
C         47.60382        61.36734        -1.58523
C         46.31083        60.70916        -1.31230
C         47.65058        62.83414        -1.78781
C         46.37525        63.52519        -1.98777
C         47.64657        65.70602        -1.43351
C         46.38946        65.05837        -1.83129
C         47.61847        67.10607        -0.99702
C         46.41273        67.85983        -1.06804
C         47.57409        69.85730        -0.21159
C         46.39279        69.22477        -0.65571
C         47.44524        71.17546         0.53511
C         46.32787        72.04868         0.02743
C         47.58461        74.10887         0.60716
C         46.33772        73.47455         0.27317
C         48.89555        38.06560         1.58448
C         50.14113        40.20016         1.40138
C         48.92620        39.48417         1.39308
C         50.17654        41.59232         1.17267
C         48.94175        42.25833         0.87930
C         50.23908        44.45237         0.71216
C         48.95409        43.68701         0.51151
C         50.14179        45.91199         0.86433
C         48.92165        46.58306         0.65022
C         50.08648        48.73884         0.79795
C         48.88701        48.01111         0.71678
C         50.08220        50.19604         0.69954
C         48.85177        50.92030         0.77995
C         50.06018        52.99990         0.37276
C         48.84240        52.31857         0.67033
C         50.07902        54.41918         0.20875
C         48.88770        55.18083         0.47622
C         50.21419        57.25681         0.10991
C         49.11625        56.56083         0.64453
C         50.15925        58.71788        -0.06953
C         48.77418        59.44654        -0.28632
C         50.11414        61.44065        -1.14364
C         48.86342        60.67036        -1.12804
C         50.08159        62.74798        -1.67832
C         48.84764        63.54462        -1.78136
C         50.07625        65.74717        -1.24839
C         48.85538        65.00911        -1.57540
C         50.03360        66.94692        -0.33097
C         48.79370        67.75739        -0.57250
C         50.04591        69.80171         0.05531
C         48.80279        69.13791        -0.21288
C         50.06943        71.18788         0.52402
C         48.76517        71.91493         0.74687
C         50.03335        74.04058         0.86388
C         48.78609        73.39985         0.72091
C         51.38439        42.34408         1.34334
C         52.56470        44.51358         1.53940
C         51.42550        43.74129         1.23883
C         52.56205        45.92792         1.39606
C         51.33453        46.62870         1.11398
C         52.57070        48.73522         0.94461
C         51.32988        48.04460         0.96730
C         52.59415        50.12030         0.35468
C         51.29751        50.87990         0.54281
C         52.52722        53.00663         0.23734
C         51.29619        52.28861         0.37350
C         52.54219        54.35989        -0.08986
C         51.30552        55.08656        -0.09134
C         52.58922        57.17582        -0.60011
C         51.35605        56.50542        -0.25143
C         52.55132        58.60155        -0.80179
C         51.38135        59.34015        -0.62809
C         52.55180        61.44652        -1.15775
C         51.34408        60.75200        -0.95377
C         52.53550        62.77201        -1.62578
C         51.32056        63.29679        -2.05273
C         52.57792        65.82057        -1.27701
C         51.30557        65.39970        -1.76308
C         52.58899        67.00455        -0.34879
C         51.30493        67.76912        -0.39624
C         52.55174        69.89906        -0.10691
C         51.30015        69.14269        -0.15335
C         52.54663        71.31249         0.14262
C         51.31469        71.96111         0.42405
C         52.50527        74.01500         0.95086
C         51.27228        73.34612         0.74794
C         53.74846        46.68411         1.52405
C         55.09871        48.76790         1.23717
C         53.76554        48.05856         1.24532
C         54.99741        50.27060         1.12031
C         53.81055        50.88802         0.78782
C         55.04724        52.92151         0.10974
C         53.78899        52.39069         0.78140
C         55.00925        54.42074        -0.02519
C         53.81768        55.07321        -0.25756
C         55.04154        57.09983        -1.15416
C         53.81354        56.48087        -0.64148
C         54.98235        58.42246        -1.61340
C         53.84124        59.25785        -1.11849
C         54.84316        61.42239        -2.14487
C         53.86640        60.77042        -1.16144
C         55.00934        62.97468        -2.07882
C         53.79322        63.56606        -1.36259
C         55.00996        65.71155        -1.09276
C         53.75542        65.08100        -1.40419
C         55.03509        67.12393        -0.79327
C         53.83173        67.81597        -0.52993
C         55.02884        69.93398        -0.32120
C         53.79189        69.21129        -0.31015
C         54.98948        71.37892        -0.18324
C         53.78230        72.06834         0.16644
C         54.89299        74.12386         1.29100
C         53.75585        73.41785         0.72141
C         56.18893        51.04694         1.29065
C         57.45800        53.09489         0.77335
C         56.26928        52.37260         0.82047
C         57.53467        54.36008         0.09018
C         56.28336        55.22634         0.05409
C         57.43862        56.43179        -1.73940
C         56.27947        56.27609        -1.04671
C         57.49446        58.56365        -2.05788
C         56.16317        59.19295        -2.10179
C         57.34403        61.31182        -1.39915
C         56.18163        60.68331        -2.11925
C         57.37534        62.78330        -1.22504
C         56.25119        63.53850        -1.40995
C         57.44903        65.64942        -0.89496
C         56.22948        64.97340        -1.12036
C         57.51296        67.06107        -0.76400
C         56.28228        67.82211        -0.70683
C         57.53293        69.95214        -0.40267
C         56.24657        69.22327        -0.47037
C         57.44604        71.38680         0.01776
C         56.22748        72.05982        -0.27802
C         57.45093        74.22543         1.51588
C         56.20922        73.96383         0.88266
C         58.72060        54.74924        -0.46625
C         59.86481        56.89841        -1.18985
C         58.79758        55.84320        -1.49013
C         59.83662        58.28430        -1.26148
C         58.62429        59.07895        -1.51021
C         59.85486        61.21500        -0.86803
C         58.56543        60.50053        -1.05240
C         59.89206        62.59822        -0.74570
C         58.61931        63.36861        -0.68682
C         60.00654        65.51103        -0.94480
C         58.67970        64.86386        -0.63540
C         60.01270        66.97146        -0.56895
C         58.79400        67.68508        -0.58710
C         60.09959        69.74161        -0.01334
C         58.81565        69.16072        -0.46802
C         60.15377        70.73600         0.89607
C         58.33604        71.99284         0.89609
C         59.88040        73.70609         1.80865
C         58.59321        73.36397         1.34561
C         61.02781        59.03172        -0.94886
C         62.27830        61.12380        -0.51650
C         61.05976        60.42812        -0.81304
C         62.31861        62.49407        -0.34956
C         61.13533        63.29182        -0.51523
C         62.42783        65.39530        -0.23400
C         61.20622        64.71348        -0.47401
C         62.48384        66.83856        -0.23610
C         61.28711        67.58453        -0.41754
C         62.63720        69.73318        -0.01741
C         61.35849        69.05901        -0.39911
C         62.57795        71.12216         0.55656
C         61.31885        71.54485         1.24192
C         62.46273        73.69296         1.90048
C         61.17119        72.95965         1.77730
C         63.61765        63.13679         0.07723
C         64.82644        65.29446         0.25457
C         63.63450        64.64868         0.01858
C         64.91262        66.72486         0.34729
C         63.73055        67.50899         0.09594
C         64.99238        69.54740         0.77327
C         63.81544        68.90670         0.28108
C         65.03193        70.93931         1.10937
C         63.82077        71.78313         1.01643
C         64.92632        73.61061         2.23158
C         63.69796        73.05146         1.79433
C         66.10308        67.35060         0.73249
C         67.35091        69.36626         1.45372
C         66.17176        68.74920         0.98008
C         67.37273        70.72760         1.81572
C         66.17257        71.51222         1.68449
C         67.33817        73.43338         2.68224
C         66.13891        72.87950         2.17550
C         68.54369        71.34947         2.33536
C         68.51690        72.67948         2.74025
O         63.24739        72.06146        -0.33308
O         30.77955        69.58534        -0.64725
O         48.21384        57.27469         1.43473
O         57.52240        57.36221        -2.78397
O         56.30276        73.41213        -0.44262
O         45.77787        42.32891         2.16715
O         51.33179        64.46804        -2.81323
O         57.53071        60.71869        -0.04029
O         59.02356        71.05009         1.65447
O         37.54776        52.37940        -2.81647
O         40.69887        46.25085         1.63962
O         61.35364        71.75474         2.69058
O         49.84629        43.98203        -0.62515
O         29.13706        72.39771         2.82271
O         58.29174        69.83582        -1.67953
O         43.13594        50.48146         1.79765
O         58.54258        64.10354         0.59930
O         36.55455        63.02446         0.45516
O         40.21355        59.45081         1.05116
O         54.33982        60.12423         0.02571
O         46.40477        64.42210        -3.14788
O         44.42855        67.80189        -2.58435
O         43.23579        60.86561        -2.94614
O         56.30336        59.98391        -3.39406
O         49.46629        71.36392         1.90734
O         41.74544        54.88937         1.56517
O         49.50255        59.52802         0.96025
O         38.95783        50.09720        -2.29648
O         62.19488        69.67234        -1.42888
O         39.17175        60.34230        -3.53375
O         48.39228        60.51705        -2.51180
O         46.73034        46.55070        -1.60115
O         44.58331        48.50111        -1.17377
O         34.65854        61.25667        -2.21421
O         46.95592        52.77678         2.20870
O         37.72705        69.51335         2.20148
O         35.55566        65.93685        -1.47440
O         30.06773        60.81776         1.43056
O         27.34924        71.47852        -0.18439
O         37.53293        66.94477         2.15348
O         41.50699        62.96918         0.50439
H         40.93495        63.58010         1.03730
O         64.72092        62.59476        -0.66431
H         64.60866        62.84252        -1.60474
O         52.72341        49.93616        -1.09926
H         53.58530        49.49654        -1.26424
O         45.51536        46.19203        -2.28362
H         45.00622        47.05044        -2.26276
O         36.45831        59.36473        -3.40667
H         35.64436        59.88642        -3.59282
O         36.25960        71.87674        -1.06005
H         36.89620        72.47714        -1.50470
O         46.51080        43.31072        -1.28076
H         46.54967        44.14963        -1.79458
O         35.21097        66.15796         2.26700
H         36.10764        66.22640         2.71563
O         40.62338        37.29432        -0.25334
H         41.03736        37.41528        -1.13215
O         52.67287        66.42113         1.01340
H         51.73953        66.22117         1.28812
O         40.00082        65.13431         1.01906
H         39.26448        65.67010         1.40935
O         39.35777        50.38815         1.26397
H         39.95093        50.10433         1.99271
O         39.28788        65.83163        -2.51389
H         38.47042        65.73743        -3.04684
O         36.75286        43.62712        -0.80479
H         37.07093        43.74214        -1.72332
O         25.31373        75.27215         1.71052
H         25.34923        75.10816         2.67494
O         59.22759        55.20663        -2.73578
H         59.08152        55.86622        -3.44926
O         46.98566        70.76753         1.87081
H         47.80102        70.67966         2.42179
O         33.48295        58.12507         1.00901
H         32.74575        57.62566         1.42143
O         49.93367        66.42822         1.06997
H         49.68005        67.18752         1.63873
O         47.55405        50.08390         2.59281
H         47.41342        51.00963         2.91077
O         44.00148        73.93084        -1.92932
H         44.79456        73.46956        -2.27778
O         53.85584        52.83999         2.16977
H         53.04638        52.53499         2.63028
O         39.41407        57.08555         1.27603
H         39.88151        57.69336         1.89181
O         31.53637        68.31381        -0.84151
O         30.25285        62.66174        -1.65885
H         30.26804        63.59331        -1.96521
O         35.31135        69.87234         2.94948
H         36.23769        69.87619         3.29214
O         54.07132        63.31441         0.05064
H         53.51695        63.91292         0.59652
O         55.85991        48.26027         0.12590
H         56.66866        48.80562         0.03809
O         42.43865        56.63891        -2.15713
H         41.96255        57.30062        -2.70553
O         55.07361        52.38812        -1.24453
H         55.87192        52.73530        -1.69483
O         37.93625        60.49367        -0.34421
H         40.13158        60.42689         0.99113
O         54.17771        61.13549        -3.38722
H         54.66322        61.59855        -4.10488
O         48.91208        35.27213         1.24295
H         48.85758        35.35629         0.26918
O         36.99286        61.92121        -3.57086
H         37.35435        61.23229        -4.17845
O         55.05219        63.44362        -3.44609
H         55.05186        64.42435        -3.43201
O         56.28161        55.91405         1.33952
H         55.47645        56.47255         1.38258
O         31.46352        68.62744         2.77466
H         32.33674        68.52692         3.20831
O         60.07688        65.48588        -2.41578
H         60.81446        66.07159        -2.69085
O         25.64281        69.72875         3.27737
H         24.78506        70.05272         3.62728
H         22.86774        74.90348         1.47095
H         25.32125        74.24492        -0.06564
H         27.81073        75.08177         1.48630
H         30.41641        75.07550         1.26766
H         32.84261        75.08957         1.21265
H         35.25643        75.17414         1.03269
H         37.72629        75.24804         0.75667
H         40.18120        75.30711         0.43900
H         42.62862        75.35729         0.10349
H         45.20806        75.31036         0.26832
H         47.60671        75.20635         0.68589
H         50.05723        75.13398         0.98466
H         52.48059        75.04345         1.34119
H         54.67726        74.77168         2.15373
H         57.49415        74.98148         2.31308
H         59.99311        74.75193         2.13934
H         62.43119        74.71538         2.30986
H         64.93070        74.60624         2.70086
H         67.33570        74.46980         3.04938
H         22.05619        69.02259         1.69007
H         20.81703        71.12449         1.98344
H         20.77393        73.60303         1.87991
H         24.58399        64.79783         1.16971
H         23.32317        66.90940         1.41313
H         27.05073        60.65117         0.01919
H         25.83549        62.68995         0.75559
H         29.64590        56.40866        -0.56941
H         28.39837        58.45941        -0.33588
H         31.97548        52.28573        -1.28375
H         30.82221        54.35927        -1.17513
H         34.38129        48.00855        -0.82904
H         33.16162        50.16120        -1.13115
H         37.25036        44.15557         1.11309
H         35.59342        45.90373        -0.50794
H         39.41888        39.49254         0.13798
H         38.12964        41.61621        -0.08336
H         41.93693        35.28298         0.51502
H         40.96725        37.72690         1.72192
H         45.38019        31.95548         0.81980
H         43.22371        33.16677         0.50215
H         47.45725        33.22164         1.39922
H         47.83072        35.72767         2.92573
H         49.84056        37.52461         1.74075
H         51.07972        39.66181         1.60043
H         52.29217        41.80565         1.65535
H         53.49242        44.01057         1.85121
H         54.69322        46.16957         1.75210
H         55.65162        48.51698         2.19384
H         57.09036        50.56209         1.69849
H         58.39423        52.62243         1.11180
H         59.60540        54.10287        -0.35551
H         60.84343        56.45150        -0.94575
H         61.96328        58.47189        -0.79556
H         63.20789        60.54562        -0.40695
H         63.79690        62.84110         1.14989
H         65.73373        64.69773         0.43035
H         66.99911        66.73620         0.90703
H         68.26112        68.76097         1.57967
H         69.47000        70.76359         2.42068
H         69.43086        73.14267         3.13825
