         206
 CSIRO Nanostructure Databank - Neutral Graphene Oxide Data Set
C         30.82073        31.66663         2.09830
C         30.92221        32.88595         2.41249
C         30.66342        36.09565         1.89074
C         30.62890        37.32016         1.62756
C         30.51352        40.37118         0.92860
C         30.41342        41.58968         0.64666
C         32.62228        29.18649        -0.04167
C         31.67331        29.66231         0.60982
C         33.08497        31.14761         1.71150
C         31.70059        30.70240         1.59252
C         33.20012        33.30607         2.19527
C         31.90540        33.89010         2.22730
C         32.99194        36.00569         1.47759
C         31.81629        35.27334         1.88052
C         32.94286        37.42556         1.19363
C         31.70380        38.15841         1.25664
C         32.83780        40.27349         0.60378
C         31.65345        39.53874         0.95007
C         32.79506        41.67957         0.29404
C         31.52009        42.39698         0.29700
C         32.72898        44.30403        -0.32659
C         31.63090        43.76364        -0.05284
C         35.29355        27.72961        -0.87627
C         35.17213        29.04104        -0.39782
C         33.93380        29.89448        -0.33863
C         35.33287        31.68232         0.79005
C         34.09360        30.92058         0.78780
C         35.41582        33.08091         1.10845
C         34.29136        33.88134         1.53582
C         35.39320        35.96960         0.83831
C         34.22921        35.29660         1.27386
C         35.36494        37.41277         0.68998
C         34.12486        38.14557         0.84909
C         35.28654        40.28347         0.31678
C         34.08703        39.55961         0.58022
C         35.28706        41.67120         0.01397
C         34.02469        42.36634        -0.01693
C         35.23317        44.45009        -0.63995
C         34.03287        43.76419        -0.35180
C         35.37577        45.82322        -0.96558
C         37.67597        27.57444        -0.87018
C         36.36517        27.08530        -1.04329
C         37.67783        28.92617        -0.38758
C         36.45002        29.63286        -0.14079
C         37.76520        31.65124         0.38142
C         36.50005        31.00642         0.31255
C         37.80451        33.07412         0.54692
C         36.61639        33.79177         0.77836
C         37.79346        35.89284         0.22484
C         36.61200        35.23445         0.64949
C         37.72901        37.34437        -0.04096
C         36.53861        38.09087         0.39835
C         37.84373        40.29244         0.08420
C         36.56564        39.56071         0.41529
C         37.78060        41.71418        -0.30125
C         36.51986        42.37959        -0.28448
C         37.73160        44.48655        -0.85611
C         36.50207        43.77774        -0.60584
C         37.75219        45.89564        -1.14252
C         36.43984        46.44114        -1.18075
C         40.07131        24.91940        -1.88732
C         39.04148        25.58523        -1.62649
C         40.17558        27.49906        -0.86490
C         38.89413        26.89010        -1.11729
C         40.19602        28.84756        -0.38766
C         38.95571        29.56007        -0.17570
C         40.24915        31.59873         0.60537
C         38.97031        30.91921         0.19742
C         40.23127        33.06293         0.25553
C         39.05401        33.76913         0.31178
C         40.25598        35.88432        -0.16576
C         39.02932        35.20659         0.08256
C         40.26935        37.29907        -0.70220
C         38.97662        38.07282        -0.45279
C         40.25108        40.20794        -0.42408
C         39.05985        39.53569        -0.27090
C         40.25300        41.65615        -0.55828
C         38.99280        42.37887        -0.58995
C         40.20586        44.51524        -0.99676
C         38.98955        43.80221        -0.82194
C         40.23740        45.92715        -1.17584
C         38.96599        46.59779        -1.28413
C         40.17750        48.69127        -1.39260
C         39.13970        47.99385        -1.44255
C         42.64826        24.84780        -1.83636
C         41.37628        25.42573        -1.65449
C         42.66045        27.40582        -0.76286
C         41.40766        26.78082        -1.10682
C         42.69325        28.79965        -0.33629
C         41.46130        29.51230        -0.18743
C         42.72221        31.58704         0.22851
C         41.50774        30.89450         0.15895
C         42.70620        33.07113         0.54190
C         41.51709        33.70690        -0.17434
C         42.72931        35.90328        -0.09876
C         41.49335        35.20957        -0.09574
C         42.73005        37.34214        -0.18919
C         41.51838        38.06330        -0.34504
C         42.73695        40.18327        -0.36677
C         41.51073        39.46779        -0.41182
C         42.72689        41.64117        -0.54540
C         41.46318        42.31848        -0.74989
C         42.78111        44.52389        -1.07401
C         41.47134        43.75803        -1.07813
C         42.71986        45.99403        -0.89423
C         41.48592        46.68173        -1.12972
C         42.72250        48.72717        -0.90301
C         41.46954        48.14158        -1.17256
C         43.70902        25.43906        -1.50142
C         45.14788        27.22109        -0.39331
C         43.88894        26.68841        -0.89873
C         45.18840        28.74477        -0.03206
C         43.92180        29.49206        -0.12011
C         45.21516        31.61202         0.27023
C         43.95386        30.89835         0.08664
C         45.22736        33.07176         0.35689
C         44.00327        33.79349         0.23025
C         45.22616        35.93760         0.03707
C         43.98516        35.19436         0.05007
C         45.21685        37.34627        -0.05839
C         43.96107        38.05724        -0.14802
C         45.24381        40.21175        -0.40146
C         43.94292        39.46595        -0.26069
C         45.08462        41.62227         0.09800
C         43.90289        42.35241        -0.41857
C         45.15399        44.53440        -0.03650
C         44.10857        43.78311        -0.85276
C         45.09648        45.95800        -0.09246
C         43.92722        46.66503        -0.55028
C         43.75025        48.06060        -0.61231
C         47.49076        27.44333        -0.57743
C         46.46824        26.77501        -0.83661
C         47.68427        28.83631        -0.36469
C         46.47218        29.48951        -0.08375
C         47.68467        31.58199         0.54144
C         46.42309        30.90412         0.19642
C         47.70245        33.10434         0.68534
C         46.44215        33.80406         0.41952
C         47.71033        35.91435         0.27923
C         46.47634        35.22321         0.23691
C         47.75489        37.37588        -0.09068
C         46.44570        38.10056         0.06366
C         47.62038        40.23747         0.55056
C         46.44671        39.48004         0.13473
C         47.53750        41.60604         0.77471
C         46.27266        42.36360         0.58365
C         47.43739        44.53527         0.97893
C         46.27883        43.85069         0.49157
C         47.27816        45.93667         0.89084
C         46.26930        46.53466         0.43730
C         50.29102        28.95165        -0.19010
C         48.96553        29.54911        -0.40807
C         50.22835        31.61413         0.69457
C         48.98090        30.96434         0.13708
C         50.21924        33.10547         0.63763
C         48.99397        33.81509         0.54399
C         50.19838        35.97361         0.43799
C         48.96518        35.22992         0.41418
C         50.17808        37.42409         0.51981
C         48.94602        38.12815         0.46120
C         50.07099        40.21565         1.10494
C         48.88173        39.51257         0.73923
C         49.99134        41.60136         1.63226
C         48.61819        42.33660         1.46380
C         49.79288        44.29751         1.92965
C         48.58158        43.82510         1.46843
C         51.36558        29.50964         0.06596
C         52.69752        31.73006         0.58998
C         51.57457        30.80484         0.71851
C         52.57201        32.96279         0.68771
C         51.43994        33.83609         0.59879
C         52.55979        36.10898         0.57282
C         51.42745        35.24346         0.52039
C         52.53960        37.35259         0.64633
C         51.38717        38.18591         0.69600
C         52.42159        40.46344         1.20562
C         51.32846        39.56335         0.97464
C         52.39103        41.65363         1.58526
C         51.23804        42.45024         1.80488
C         50.95311        43.77532         2.07552
O         49.03696        41.72770         2.72330
O         50.78822        30.98792         1.89718
O         37.45589        40.07633         1.50413
O         47.68103        32.19632         1.85467
O         37.98360        37.70972        -1.49334
O         42.19466        44.08179        -2.34373
O         33.36319        32.03134         2.77140
O         45.12914        27.66992         0.97164
O         45.23704        41.83178         1.53810
O         49.02497        30.70215        -1.30585
O         33.82480        30.60655        -1.57578
H         33.81697        29.95673        -2.30918
O         42.49545        33.25006         1.96455
H         43.18420        32.74852         2.44782
O         40.37517        37.11941        -2.15571
H         39.44834        37.09695        -2.49593
O         47.95713        37.38435        -1.56435
H         48.78965        36.89742        -1.74804
O         44.73904        43.67261        -2.16551
H         44.01368        43.50544        -2.81230
O         40.25691        31.52868         2.08092
H         40.21960        30.58116         2.33107
O         45.50230        40.34954        -1.83681
H         45.68399        39.45626        -2.19992
O         41.69120        33.38908        -1.59549
H         41.08182        33.95972        -2.11062
