         320
 CSIRO Nanostructure Databank - Neutral Graphene Oxide Data Set
C         30.46709        31.59811         0.78224
C         30.56688        32.82261         0.88115
C         30.54614        36.05742         0.75493
C         30.47392        37.25902         0.49316
C         30.24353        40.33069        -0.67399
C         30.26769        41.57792        -0.67502
C         32.89476        28.77629         0.45251
C         31.80433        29.32072         0.63099
C         32.89819        31.48784         0.48001
C         31.51500        30.72150         0.15021
C         32.83920        32.97702         0.09847
C         31.60200        33.76909         0.43667
C         32.87229        35.98416         0.12378
C         31.75602        35.19757         0.91783
C         32.77110        37.27781        -0.28392
C         31.36338        38.01646        -0.44242
C         32.64663        40.17053        -0.80617
C         31.40666        39.51345        -0.11497
C         32.66797        41.72342        -0.85200
C         31.34321        42.50323        -0.74607
C         32.69950        44.39902        -0.60808
C         31.52250        43.85064        -0.56719
C         35.72007        27.21720         0.42851
C         35.44151        28.67343         0.64253
C         34.21797        29.21776        -0.07886
C         35.36903        31.46936        -0.01579
C         34.17456        30.77290         0.03478
C         35.34989        32.96646        -0.33586
C         34.14279        33.75167         0.24516
C         35.39547        35.86256        -0.34575
C         34.04923        35.15650        -0.40043
C         35.37765        37.32100        -0.74614
C         34.00170        38.02908        -0.80494
C         35.22665        40.33611        -0.33725
C         33.95626        39.48966        -0.23204
C         35.21069        41.70150        -0.34462
C         33.97321        42.45926        -0.70292
C         35.28641        44.56569        -1.05714
C         33.98123        43.97176        -0.59537
C         35.47148        46.06240        -0.99526
C         37.89958        27.16071        -0.68118
C         36.74400        26.60322         0.11725
C         37.85306        28.66326        -0.25135
C         36.71231        29.35734         0.07128
C         37.87920        31.53898        -0.16982
C         36.65076        30.80106        -0.08698
C         37.89304        33.02845        -0.50989
C         36.64931        33.69936         0.12042
C         37.88328        35.96561        -0.37874
C         36.57130        35.19774        -0.20195
C         37.77331        37.37027         0.25539
C         36.51070        38.10900        -0.10173
C         37.69567        40.24415         0.45445
C         36.57084        39.60930        -0.40522
C         37.71377        41.78055         0.35742
C         36.42974        42.50354         0.03270
C         37.81360        44.64137        -0.46996
C         36.41541        44.04112        -0.11810
C         37.83037        46.26455        -0.08248
C         36.52713        46.63496        -0.71805
C         40.50778        24.34148        -1.16097
C         39.66960        25.20582        -0.86589
C         40.31638        27.21465         0.07148
C         39.25600        26.51133        -0.46164
C         40.23736        28.67983         0.39731
C         39.15098        29.40381        -0.41421
C         40.27083        31.54488         0.54730
C         39.08513        30.86594        -0.03171
C         40.20553        33.03955         0.83151
C         39.25901        33.74160        -0.18423
C         40.42479        35.97455         0.07892
C         39.06944        35.24239         0.28652
C         40.39189        37.43641         0.48770
C         39.05636        38.12036         0.74225
C         40.24949        40.35764         0.61906
C         39.06627        39.55264         0.14228
C         40.22814        41.73906         0.56069
C         39.01542        42.49042         0.32099
C         40.22079        44.60184         0.05511
C         39.02221        43.90822         0.10766
C         40.35141        45.97620        -0.55182
C         39.09137        46.85944        -0.63228
C         40.29754        48.99878        -1.53000
C         39.43089        48.08528        -1.04162
C         42.87438        24.38402        -0.77842
C         41.75321        23.67908        -1.27948
C         42.79214        27.24607         0.62843
C         41.48693        26.52544         0.67669
C         42.81536        28.62130         0.63635
C         41.60538        29.39092         0.14905
C         42.87603        31.54838         0.93629
C         41.56117        30.81076         0.69379
C         42.87540        33.02995         0.47847
C         41.56210        33.73694         0.72323
C         42.92078        35.91083         0.59118
C         41.55249        35.23200         0.88474
C         42.84655        37.38153         1.08315
C         41.53757        38.11995         0.73387
C         42.77022        40.29241         0.49497
C         41.50550        39.61749         1.07317
C         42.80280        41.79974         0.71050
C         41.47962        42.53681         0.93555
C         42.74794        44.68706         0.48765
C         41.52658        43.83078         0.08260
C         42.76264        46.14009        -0.00152
C         41.53794        46.73112         0.04337
C         42.84119        48.97987        -0.88196
C         41.41501        48.91006        -0.67290
C         43.62848        25.22493        -0.27728
C         45.21680        27.12078         0.28709
C         43.98784        26.46925         0.33408
C         45.38179        28.52724         0.76755
C         44.07954        29.34637         0.82405
C         45.36076        31.54497         0.69055
C         44.09980        30.81168         0.34929
C         45.43616        32.94959         1.27222
C         44.07494        33.69987         1.19292
C         45.48234        35.85858         1.44107
C         44.08992        35.18898         1.27276
C         45.38840        37.46952         1.42836
C         44.16179        38.10125         0.70027
C         45.32506        40.37556         0.90687
C         44.05139        39.60565         0.98694
C         45.23045        41.70817         0.18631
C         43.97597        42.47721         0.55913
C         45.27220        44.70341         0.68718
C         44.04017        43.94234         0.11607
C         45.26403        46.24401         0.36293
C         44.09477        46.81238        -0.41627
C         43.78730        48.27579        -0.49489
C         47.39733        27.39285        -0.77526
C         46.41707        26.73465        -0.38403
C         47.94797        28.57143        -0.00892
C         46.67623        29.31055         0.50982
C         47.58799        31.60947        -0.42433
C         46.61085        30.80645         0.42308
C         47.83983        32.96008         0.33095
C         46.55156        33.74718         0.56541
C         47.66178        35.90672         0.06732
C         46.55351        35.16714         0.55685
C         47.76625        37.37861         0.24784
C         46.64721        38.14119         0.89139
C         47.74584        40.32029         0.50719
C         46.60301        39.62872         0.73571
C         47.77767        41.81434         0.78644
C         46.54400        42.51620         0.23592
C         47.88730        44.72145         0.52139
C         46.57364        44.00458         0.29030
C         47.70501        46.06708         0.68523
C         46.53140        46.64143         0.57487
C         50.16242        28.95337        -1.21912
C         48.91496        29.47480        -0.72181
C         50.02923        31.65197        -1.18959
C         48.86612        30.85357        -0.78852
C         50.13591        32.95939        -0.82459
C         48.87216        33.70850        -0.48720
C         50.06967        35.93262        -0.93821
C         48.79162        35.20441        -0.58347
C         50.13078        37.44137        -0.73142
C         48.86671        38.18379        -0.42527
C         50.24700        40.18232         0.50805
C         48.95586        39.71865        -0.16267
C         50.29554        41.73935         0.81539
C         49.09254        42.49520         0.47083
C         50.44436        44.44812         0.59857
C         49.12959        43.98938         0.05207
C         51.23683        29.45810        -1.57517
C         52.45420        31.73244        -1.73759
C         51.35954        30.83835        -2.11326
C         52.49950        32.90976        -1.38319
C         51.46857        33.73522        -0.68091
C         52.48375        36.09270        -1.01015
C         51.36502        35.16103        -1.16371
C         52.56217        37.32183        -0.87135
C         51.44536        38.01036        -0.11616
C         52.57636        40.25449         0.51478
C         51.50485        39.49159         0.12833
C         52.68740        41.51135         0.78588
C         51.65666        42.40820         0.87667
C         51.50029        43.82859         0.79502
O         40.69649        30.90119         1.85457
O         44.15817        43.85138        -1.29434
O         50.09937        40.69113         1.85092
O         43.70254        34.38748         2.42852
O         47.81394        37.75471         1.69901
O         41.28819        48.05603         0.46106
O         50.53342        35.50725        -2.27041
O         41.36627        25.46823         1.28858
O         47.13625        30.13881         1.63574
O         44.77283        28.90967         2.01850
O         46.69214        43.29194        -0.98663
O         33.43774        42.10181        -2.05001
O         36.81137        42.26951         1.44153
O         36.71289        37.57026         1.23443
O         31.94596        33.45182        -0.93803
O         49.30963        37.99311        -1.80552
O         34.09206        38.00878        -2.28953
O         48.31281        34.31045        -1.69195
O         35.45512        37.41053        -2.24344
O         44.62264        40.20357         2.17705
O         39.68279        33.17706         2.16939
H         39.98947        32.39228         2.68058
O         44.07523        30.67373        -1.08896
H         43.87977        31.56221        -1.47838
O         39.27097        39.34916        -1.27033
H         39.56428        40.18995        -1.68068
O         47.65098        41.95783         2.23886
H         48.38623        41.43805         2.64268
O         40.75694        45.72773        -1.92249
H         40.05577        45.17276        -2.33534
O         48.96195        40.40376        -1.44213
H         49.09983        39.73082        -2.15300
O         39.81777        28.69806         1.77491
H         40.51489        28.28920         2.32900
O         32.52352        39.79045        -2.18497
H         33.00905        40.46139        -2.72431
O         37.79748        33.08623        -1.95080
H         36.86546        32.86458        -2.21405
O         38.05567        44.55596        -1.88069
H         37.24070        44.80595        -2.37608
O         35.49506        44.09502        -2.38762
H         34.69084        44.27038        -2.92044
O         45.93341        35.51239         2.76393
H         45.48260        36.14314         3.37875
O         49.21035        44.05784        -1.37685
H         48.31806        43.82659        -1.73352
O         42.84570        37.31894         2.52437
H         42.75575        38.24176         2.86426
O         40.75308        36.01533        -1.32545
H         39.92655        36.22041        -1.82838
O         39.04700        38.16766         2.18226
H         38.10701        38.10789         2.47624
O         45.82803        32.80440         2.66096
H         45.68732        33.69285         3.08088
O         36.00340        44.55772         1.16995
H         36.40648        43.98013         1.86159
O         40.04919        33.69413        -1.37299
H         39.43675        33.73970        -2.14496
O         37.39762        39.93875         1.82188
H         36.84938        40.67274         2.18532
O         34.33526        33.98939         1.64056
H         34.19193        33.14357         2.12524
O         42.70031        40.07778        -0.94335
H         43.44411        40.62325        -1.33366
O         51.40288        37.43090         1.20131
H         52.20056        37.71097         1.69793
O         32.12298        35.14150         2.28354
H         32.27048        36.04867         2.61951
O         35.23966        32.92711        -1.78147
H         34.61080        33.62028        -2.10776
O         39.48514        29.31447        -1.83043
H         38.78838        29.79065        -2.32926
O         33.73950        35.02885        -1.81798
H         33.66296        35.92626        -2.21557
O         46.89724        31.89704        -1.64957
H         47.34319        32.65573        -2.09409
O         33.85611        39.25754         1.18582
H         33.75332        40.10973         1.65843
O         41.33034        42.79296         2.34413
H         41.49053        41.94177         2.81014
O         48.63524        28.04485         1.12544
H         48.50844        28.67645         1.86903
O         48.41280        32.66908         1.61656
H         47.66660        32.50091         2.24934
O         34.33119        28.86776        -1.45556
H         33.52808        29.18595        -1.91978
O         45.25229        44.57572         2.13003
H         46.03508        45.04257         2.49480
O         45.04172        41.37103        -1.22269
H         44.87034        42.27317        -1.64089
O         44.33619        46.42944        -1.77405
H         44.31515        45.42389        -1.82388
O         38.69206        35.34429         1.66766
H         39.50258        35.25805         2.23688
O         37.58631        27.07813        -2.06160
H         36.66880        27.39920        -2.19188
O         37.80762        46.45951         1.30563
H         36.94801        46.11660         1.64518
O         43.11170        31.54698         2.35257
H         42.24064        31.50917         2.80889
O         41.22473        35.45587         2.28247
H         41.97932        35.09438         2.81074
O         44.43875        38.00519        -0.70542
H         43.76611        38.55946        -1.17626
O         43.23563        35.80496        -0.80802
H         42.47930        36.17136        -1.33322
O         35.32740        29.00577         2.01535
H         36.11121        28.66060         2.49090
O         51.05772        30.91017        -3.45195
H         50.40812        30.22033        -3.69222
O         41.63010        43.37350        -1.28048
H         42.56127        43.58679        -1.60879
O         41.83710        29.50499        -1.26604
H         41.63514        28.65167        -1.70267
O         51.74504        33.82022         0.71412
H         51.87590        32.91691         1.07042
O         41.89018        22.48641        -1.86386
H         41.02510        22.13103        -2.14842
O         30.93177        37.77712        -1.76118
H         31.17786        38.54526        -2.32663
O         31.32281        30.69437        -1.23306
H         30.39084        30.47415        -1.43445
O         38.12758        36.12491        -1.79434
H         37.34157        36.53182        -2.22136
O         41.53585        39.74741         2.52252
H         40.72224        39.29045         2.84915
O         33.01581        31.52354         1.92533
H         33.12147        30.60013         2.24721
O         45.31182        37.86484         2.80931
H         46.21766        38.09903         3.10719
O         36.75759        33.49528         1.53432
H         37.47549        34.09060         1.88049
O         31.43180        39.72081         1.27977
H         30.76855        39.11817         1.68523
O         36.91751        39.74850        -1.80271
H         36.32585        39.16652        -2.33421
O         43.12953        33.10031        -0.95236
H         43.14333        34.07011        -1.19144
O         42.63891        44.84663         1.91296
H         43.53582        44.91155         2.31854
