         661
 CSIRO Nanostructure Databank - Neutral Graphene Oxide Data Set
C          6.02090        31.62507        -0.68534
C          5.98797        32.98025        -0.56566
C          8.49336        27.37914        -0.91457
C          8.49998        28.78034        -0.91797
C          7.28769        29.50704        -0.82055
C          8.50173        31.62851        -0.63464
C          7.26889        30.89851        -0.71092
C          8.48406        33.04402        -0.48086
C          7.20114        33.75389        -0.39512
C          8.40734        35.80879         0.32649
C          7.15030        35.09103        -0.09980
C          8.39038        37.31067         0.17787
C         10.84470        23.09556        -0.51618
C         10.86925        24.48634        -0.71560
C          9.66872        25.24966        -0.79426
C         10.95377        27.32287        -1.44623
C          9.68261        26.62572        -1.00857
C         10.95097        28.81697        -1.16687
C          9.76935        29.49999        -0.98378
C         10.94365        31.67607        -0.75887
C          9.75041        30.95061        -0.79836
C         10.94154        33.07788        -0.47953
C          9.68727        33.75647        -0.40525
C         10.89537        35.96398        -0.07080
C          9.60332        35.26657        -0.46969
C         10.80951        37.26966         0.70884
C          9.56123        38.02412         0.31029
C         10.81219        40.19205         0.30112
C          9.64564        39.42721         0.09822
C         10.73107        41.57683        -0.08584
C         13.21080        18.79422         0.32717
C         13.18711        20.17262         0.17517
C         11.99189        20.92790        -0.03099
C         13.28575        23.01193        -0.22280
C         12.01352        22.30737        -0.29651
C         13.35288        24.42041        -0.66531
C         12.12703        25.21684        -0.78392
C         13.47637        27.28399        -0.94097
C         12.19933        26.58645        -0.97963
C         13.50781        28.75819        -1.19564
C         12.23393        29.54709        -1.33528
C         13.43408        31.69635        -0.54318
C         12.24018        31.08894        -1.26178
C         13.39873        33.01227        -0.10229
C         12.17473        33.74360        -0.19676
C         13.29993        35.86262         0.76284
C         12.16436        35.19469         0.05135
C         13.28031        37.34385         0.75651
C         12.10424        38.05096         0.61245
C         13.30322        40.17352         0.75900
C         12.06552        39.50830         0.64167
C         13.39607        41.55801         0.98521
C         11.62434        42.56013         0.36098
C         13.24548        44.45743         0.08898
C         12.00797        43.79371        -0.19579
C         13.35865        45.80195        -0.35985
C         15.73582        14.53942         0.36790
C         15.69962        15.92678         0.49687
C         14.47253        16.66812         0.41213
C         15.69181        18.78691         0.63996
C         14.44602        18.05745         0.44746
C         15.69359        20.19023         0.65047
C         14.51418        20.87444        -0.00041
C         15.60382        23.14292         0.58553
C         14.42800        22.36474         0.16169
C         15.75644        24.50956         0.16294
C         14.68018        25.15017        -0.59338
C         16.04085        27.23179        -0.89054
C         14.65938        26.62608        -0.70076
C         16.08160        28.76402        -0.98364
C         14.76338        29.48169        -0.78430
C         15.96331        31.77167        -0.60972
C         14.70891        30.94782        -0.47028
C         15.87339        33.28887        -0.37744
C         14.67224        33.61163         0.53133
C         15.86961        35.90186         0.88453
C         14.61187        35.11675         0.85962
C         15.84776        37.30616         1.04755
C         14.53754        38.06005         1.19548
C         15.83043        40.18925         0.87785
C         14.59849        39.41217         0.49681
C         15.83582        41.64995         0.48338
C         14.51729        42.35915         0.71709
C         15.70786        44.49275         0.59442
C         14.44362        43.76108         0.55750
C         15.64415        45.98462         0.53391
C         14.49411        46.62629        -0.14718
C         15.64370        48.88012        -0.16542
C         14.54865        47.96499        -0.52629
C         15.83111        50.19696        -0.77264
C         18.23364        10.19958         0.24026
C         18.20990        11.62693         0.71265
C         16.97093        12.40734         0.36821
C         18.21356        14.52346         0.59687
C         16.96333        13.79347         0.44896
C         18.17155        15.95647         0.70464
C         16.93683        16.65161         0.69720
C         18.13889        18.79435         0.98557
C         16.91967        18.07240         0.80559
C         18.11827        20.22254         1.07164
C         16.88889        20.90167         0.93143
C         18.12720        23.10868         1.16577
C         16.86902        22.36715         1.10197
C         18.02433        24.62197         1.28966
C         17.11806        25.15806         0.17541
C         18.22798        27.47131         0.58620
C         17.02713        26.68369         0.15068
C         18.45666        28.85372         0.07197
C         17.33165        29.52122        -0.64860
C         18.52157        31.76989        -0.28164
C         17.26369        31.03909        -0.61595
C         18.41323        33.20975         0.06486
C         17.17391        33.89810         0.10829
C         18.32279        35.97443         0.77677
C         17.13718        35.25771         0.60221
C         18.34525        37.34849         1.38927
C         17.03337        38.06306         1.17160
C         18.27548        40.24164         1.21657
C         17.01602        39.51086         1.16381
C         18.24339        41.68020         0.95857
C         16.94137        42.40421         1.22498
C         18.20817        44.60538         0.58377
C         16.90476        43.87883         0.87541
C         18.21142        46.09057         1.03008
C         16.87919        46.78944         0.78481
C         18.18405        48.97405         0.35176
C         16.89810        48.26486         0.50328
C         18.17152        50.35173         0.04645
C         16.96181        50.97205        -0.50146
C         18.17760        53.12232        -0.74057
C         17.03471        52.32932        -0.93703
C         18.26924        54.44744        -1.19611
C         20.71938         6.06762        -0.67162
C         20.65443         7.47094        -0.56499
C         19.44026         8.14557        -0.33700
C         20.62754        10.35833        -0.47924
C         19.38362         9.56291        -0.15279
C         20.66388        11.74096         0.12725
C         19.47684        12.39422         0.41687
C         20.69487        14.52779         0.51750
C         19.44847        13.82169         0.55157
C         20.65148        16.00540         0.50171
C         19.38404        16.70560         0.81554
C         20.65179        18.81742         1.35032
C         19.37523        18.08405         1.00138
C         20.58789        20.30969         1.15112
C         19.36201        20.97166         1.15893
C         20.57907        23.15461         1.27325
C         19.33109        22.42455         1.17620
C         20.55621        24.58643         1.35324
C         19.35844        25.32636         1.21320
C         20.65578        27.40944         1.23402
C         19.42517        26.71408         1.04742
C         20.63724        28.91652         1.32687
C         19.58641        29.53177         0.41519
C         20.86398        31.68980         0.78144
C         19.74006        30.97965         0.12876
C         20.75677        33.13855         0.93061
C         19.60090        33.87859         0.38813
C         20.87120        36.07341         0.58447
C         19.57498        35.37456         0.21448
C         20.83410        37.52038         0.88385
C         19.58666        38.16869         1.06633
C         20.76950        40.35855         1.24088
C         19.53036        39.58466         1.15727
C         20.75845        41.74059         1.38132
C         19.54934        42.49126         1.01791
C         20.68433        44.71096         1.28002
C         19.45417        43.93252         1.12274
C         20.70913        46.18195         0.91671
C         19.42418        46.79318         0.36874
C         20.63328        48.98486         0.30564
C         19.41960        48.29943         0.46852
C         20.63423        50.40082         0.23162
C         19.39257        51.06702         0.10371
C         20.66291        53.28148        -0.06667
C         19.34767        52.53075        -0.05479
C         20.71200        54.56269        -0.79140
C         19.50619        55.15363        -1.24500
C         20.76761        57.08580        -2.07249
C         19.56541        56.45201        -1.84427
C         20.76855        58.50895        -2.57745
C         23.22032         3.31525        -1.18678
C         22.00224         3.96967        -0.95784
C         23.17654         6.11959        -0.95767
C         21.95177         5.37685        -0.84541
C         23.16404         7.53468        -0.83680
C         21.90513         8.23310        -0.57195
C         23.22258        10.29567        -0.14014
C         21.90005         9.57782        -0.31996
C         23.13045        11.80140        -0.17014
C         21.91547        12.45390         0.11527
C         23.23099        14.55988         0.56696
C         21.90236        13.86868         0.35349
C         23.21423        16.05379         0.41288
C         21.92160        16.76809         0.46299
C         23.05086        18.93648         0.59991
C         21.90519        18.20684         0.77532
C         23.02870        20.37203         0.76760
C         21.82095        21.03627         1.01556
C         23.04510        23.20219         1.18929
C         21.80771        22.48361         1.12827
C         22.98924        24.54568         1.58064
C         21.77440        25.28622         1.52741
C         23.08515        27.44227         1.93976
C         21.81961        26.71021         1.53469
C         23.17261        28.86915         1.47002
C         22.01131        29.56427         1.19419
C         23.26092        31.70806         1.45801
C         22.02794        31.00709         1.12591
C         23.26700        33.10018         1.53524
C         22.02305        33.86928         1.36192
C         23.27677        36.09343         1.41026
C         22.10592        35.32011         1.00646
C         23.30598        37.48025         1.20949
C         22.05853        38.20810         1.01906
C         23.24008        40.33583         1.24174
C         22.04915        39.64514         1.20321
C         23.32244        41.76092         1.72039
C         21.99916        42.51433         1.64425
C         23.14140        44.56069         0.52874
C         21.99462        43.98760         1.37900
C         23.13937        46.08761         0.41601
C         21.98308        46.80615         0.47008
C         23.15469        49.01613         0.14379
C         21.88676        48.22537        -0.07355
C         23.16535        50.39004         0.25627
C         21.90251        51.14321         0.20985
C         23.15863        53.35504         0.27236
C         21.91859        52.51064         0.08053
C         23.19023        54.57356        -0.63560
C         21.96711        55.17016        -1.07290
C         23.25187        57.00308        -2.11919
C         22.00279        56.42956        -1.75288
C         23.27957        58.23683        -2.90463
C         22.08911        58.95690        -3.15149
C         23.34305        60.62131        -4.39781
C         22.13138        60.14054        -3.89868
C         24.40271         4.02931        -1.33911
C         25.58477         6.21245        -1.44933
C         24.40736         5.45120        -1.24523
C         25.55640         7.62020        -1.40829
C         24.32471         8.27011        -1.09488
C         25.53081        10.49466        -1.13318
C         24.21193         9.77213        -1.17825
C         25.53514        11.86002        -0.86956
C         24.33796        12.54278        -0.40340
C         25.54222        14.69763        -0.48660
C         24.38057        13.92361        -0.16854
C         25.58686        16.09955        -0.23281
C         24.38035        16.75843         0.22755
C         25.60048        19.01014         0.15971
C         24.35680        18.23206         0.42255
C         25.40034        20.44150        -0.24697
C         24.15978        21.14798         0.19866
C         25.63359        23.20475         0.54356
C         24.20142        22.67249         0.33562
C         25.98939        24.24815         1.33937
C         24.17309        25.29042         1.92580
C         25.71078        27.22989         1.92602
C         24.35103        26.62285         1.72340
C         25.69084        28.75034         1.96592
C         24.44093        29.54746         1.65960
C         25.75197        31.63328         2.08599
C         24.46955        30.93557         1.66504
C         25.79745        33.13384         1.82448
C         24.49537        33.85474         1.85965
C         25.80388        35.99762         1.36248
C         24.49710        35.35670         1.78654
C         25.78501        37.50883         1.51968
C         24.54476        38.18445         1.35599
C         25.71501        40.41271         1.62473
C         24.55531        39.64667         1.01433
C         25.74045        41.84899         1.22629
C         24.50970        42.53207         1.16144
C         25.68549        44.54427         0.44657
C         24.48239        43.90098         0.82403
C         25.70439        46.01642         0.15993
C         24.39253        46.75555        -0.02099
C         25.71335        48.99680         0.13651
C         24.40331        48.26243        -0.06825
C         25.63578        50.42806         0.47778
C         24.43108        51.12067         0.38147
C         25.64366        53.25829         0.15153
C         24.45386        52.56557         0.26607
C         25.64792        54.66196        -0.31392
C         24.40288        55.20922        -0.89936
C         25.73623        56.87869        -2.19628
C         24.45362        56.37921        -1.72321
C         25.77141        57.92303        -3.29104
C         24.49900        58.72050        -3.42888
C         24.52212        59.91040        -4.16520
C         26.73231         8.41025        -1.64722
C         27.94072        10.57321        -1.66242
C         26.74095         9.80723        -1.50368
C         27.94750        11.96151        -1.52618
C         26.71955        12.63646        -1.13492
C         27.77853        14.82131        -1.68441
C         26.68001        14.02258        -1.04217
C         27.84480        16.22981        -1.17713
C         26.77287        16.85598        -0.58697
C         27.83298        19.14895        -1.05462
C         26.92904        18.31528        -0.16251
C         27.82680        20.52657        -1.01280
C         26.60074        21.24118        -0.65979
C         28.04450        23.33551        -0.32291
C         26.69582        22.71544        -0.35729
C         28.18749        24.60087         0.33945
C         27.08537        25.17152         1.09946
C         28.29030        27.26066         1.55836
C         27.00233        26.51051         1.52640
C         28.31319        28.76337         1.70426
C         27.01022        29.48847         1.86776
C         28.28125        31.61934         1.74161
C         26.95832        30.93504         1.41813
C         28.28667        33.10051         1.91843
C         26.97737        33.81429         1.85252
C         28.30183        35.97065         1.66225
C         26.99606        35.32106         2.06976
C         28.28611        37.46314         1.56858
C         26.99356        38.19536         1.65737
C         28.27765        40.42300         1.58382
C         27.00157        39.66689         1.84264
C         28.22865        41.78731         0.97480
C         26.91916        42.46940         0.79925
C         28.11077        44.36105        -0.24459
C         26.87116        43.78904         0.29157
C         28.09006        46.24988         1.26809
C         26.87122        46.84389         0.60051
C         28.14774        48.94659         1.03608
C         26.90380        48.20309         0.53236
C         28.17769        50.34005         0.38825
C         26.90763        51.11789         0.70173
C         28.21884        53.19349        -0.04917
C         26.93557        52.62536         0.46387
C         28.18335        54.41547        -0.73851
C         26.98567        55.24801        -0.79769
C         26.91379        56.32069        -1.80017
C         29.14702        12.73644        -1.67446
C         30.31528        14.90441        -1.83392
C         29.13443        14.13116        -1.67693
C         30.30217        16.31650        -1.90721
C         28.98971        16.98488        -1.73929
C         30.16939        19.23445        -2.00644
C         28.95983        18.46231        -1.69356
C         29.96655        20.60307        -2.14585
C         28.93742        21.34337        -1.47674
C         30.40427        23.49861        -1.27859
C         29.10273        22.69527        -1.02412
C         30.51903        24.74226        -0.41457
C         29.41131        25.30199         0.24841
C         30.70452        27.41236         0.57239
C         29.54070        26.59733         0.94420
C         30.83614        28.81642         1.10848
C         29.51452        29.54254         1.26422
C         30.74309        31.70323         1.13545
C         29.52313        30.91060         1.32944
C         30.76874        33.10470         1.37682
C         29.56122        33.84219         1.70671
C         30.84500        35.95464         1.74841
C         29.57119        35.21380         1.82038
C         30.84640        37.47953         1.71173
C         29.54112        38.25454         1.93572
C         30.66028        40.23532         0.62191
C         29.46119        39.58104         1.20700
C         30.70479        41.70037         0.39870
C         29.35678        42.30406         0.09652
C         30.59568        44.58701        -0.01863
C         29.33079        43.82244         0.11149
C         30.62864        45.99582         0.54413
C         29.39388        46.82158         0.73971
C         30.66770        48.91555         0.39931
C         29.43214        48.18450         0.71463
C         30.66092        50.31232         0.34700
C         29.45812        51.12213         0.75517
C         29.40744        52.46843         0.07688
C         31.44191        17.11665        -2.11295
C         32.69768        19.22450        -2.09125
C         31.44183        18.55336        -2.15956
C         32.93932        20.60263        -1.80991
C         31.88003        21.59365        -1.95612
C         32.92842        23.19176        -0.45226
C         31.70980        22.69636        -1.19240
C         32.99832        24.69965        -0.55448
C         31.76848        25.40189        -0.35449
C         33.05936        27.52346        -0.16154
C         31.80965        26.79973         0.00804
C         33.08835        28.91480        -0.00045
C         31.77397        29.62381         0.21214
C         33.12870        31.73839         0.50872
C         31.90972        31.04966         0.68005
C         33.17175        33.14377         0.73717
C         31.98180        33.82947         1.12640
C         33.21896        35.96841         1.01475
C         32.03201        35.24542         1.25710
C         33.20144        37.41016         0.91998
C         31.99937        38.10627         1.04697
C         33.23111        40.25742         0.45228
C         31.93633        39.47675         0.55378
C         33.18313        41.74715         0.75050
C         31.87756        42.38305         0.29418
C         33.19253        44.57440         0.05604
C         31.89553        43.83589        -0.01807
C         33.15891        45.96827        -0.04778
C         31.96992        46.74555         0.34442
C         31.85765        48.18304         0.15857
C         34.14747        21.12571        -1.32366
C         35.40785        23.18465        -0.84492
C         34.20897        22.49826        -0.90960
C         35.46980        24.62732        -0.73704
C         34.21577        25.36547        -0.60131
C         35.46402        27.50150        -0.63148
C         34.25759        26.80785        -0.48769
C         35.50936        28.91972        -0.45971
C         34.29253        29.63643        -0.15208
C         35.53094        31.77159        -0.07181
C         34.32467        31.05240         0.07403
C         35.58688        33.15686         0.19131
C         34.39419        33.86189         0.56261
C         35.65858        35.99486         0.54525
C         34.42643        35.27058         0.70975
C         35.68085        37.39959         0.62734
C         34.44547        38.13465         0.71489
C         35.71771        40.33073         0.92047
C         34.46365        39.52775         0.71263
C         35.62530        41.70304         0.27719
C         34.44655        42.42514         0.24798
C         34.39060        43.82498        -0.03060
C         36.65631        25.30813        -0.88477
C         37.96147        27.49580        -0.78263
C         36.68672        26.78845        -1.15063
C         37.97832        28.87540        -0.64186
C         36.73446        29.60593        -0.55625
C         38.03439        31.76345        -0.33177
C         36.73178        31.10243        -0.69351
C         38.06107        33.13153        -0.08645
C         36.83231        33.87280         0.10717
C         38.12703        35.98208         0.25379
C         36.87045        35.26227         0.30380
C         38.13633        37.37299         0.34138
C         36.92775        38.13692         0.50821
C         36.94312        39.52470         0.58545
C         39.21633        29.61388        -0.53778
C         40.50150        31.70888        -0.24880
C         39.24995        30.99606        -0.38393
C         40.53573        33.06165        -0.08246
C         39.32180        33.83836         0.00965
C         39.33861        35.21958         0.14040
O         29.29424        26.59667         2.40612
O         17.01121        27.35610         1.42519
O         19.56763        31.43471        -1.26100
O         30.89090        21.31373        -2.91460
O         22.08372        43.51150         2.75492
O         11.83955        35.99745        -1.17390
O         14.23782        24.49764        -1.85096
O         14.71032        29.94392         0.61505
O         24.31632        20.66052        -1.20197
O         29.65551        39.52378        -0.22412
O         22.81676        44.14197        -0.78341
O         28.52570        17.69798        -2.96436
O         26.27435        22.25334        -1.67859
O         26.97892        52.04485         1.81682
O         21.86469        35.65827        -0.42685
O         13.00622        29.09636        -2.53319
O         21.16557        16.50626        -0.81637
O         25.23396        18.71623         1.54915
O         19.79856        53.27947         1.12558
O         32.56959        39.75162        -0.74749
O         20.70872        45.80504         2.30433
O         18.91157        42.01226        -0.29920
O         17.01144        29.12333        -2.04069
O         31.25815        44.30377        -1.30446
O         28.37234        32.18278         3.08956
O         24.39975        34.70854         3.09520
O         25.13460        46.24642        -1.16856
O         31.50298        46.18485         1.65836
O         27.85213        29.25424         3.01908
O         28.57287        41.58817         2.39008
O         31.18573        36.76563         2.94875
O         15.86649        22.85695         2.03310
O         15.92732        48.96520         1.29277
O         15.93394        46.52022         1.88076
O         25.18911        48.74729        -1.21705
O         25.21454        24.53477         2.45715
O         13.73927        35.30941         2.05084
O         28.03230        45.53387         2.24908
O         12.30045        42.20392         1.55776
O         25.68776        27.96823         3.20807
O         26.14745        40.10007         2.96225
O         16.66028        31.53264        -1.86558
O         20.99135        33.58364         2.35156
O         28.34950        36.63906         0.33896
O         26.39823        55.58647         0.51934
O         31.40975        28.70681         2.43268
H         30.80635        28.13872         2.96438
O         26.90457        58.78398        -3.13523
H         26.81349        59.25731        -2.28303
O         14.83080        20.72800        -1.44275
H         14.11089        21.16210        -1.95006
O         29.43520        38.57165         3.33232
H         29.88662        37.85451         3.83654
O         36.58325        31.33724        -2.15844
H         35.69165        31.01549        -2.41208
O         31.10420        29.67855        -1.08773
H         31.68612        30.16396        -1.70900
O         27.39543        14.93366        -3.10308
H         27.76847        15.77666        -3.44876
O         22.97225        27.57154         3.40366
H         23.87395        27.82548         3.73130
O         23.62165        41.56720         3.13643
H         23.32324        42.38253         3.60431
O         26.77307        30.93275        -0.01441
H         26.62460        31.85306        -0.31840
O         20.21017        29.23189         2.68707
H         20.87120        28.83558         3.29815
O         18.38060        46.12846         2.45141
H         17.48282        46.12391         2.85711
O         20.78655        18.61932         2.81550
H         21.56466        19.13852         3.11240
O         12.33200        31.57023        -2.63901
H         12.87909        30.91912        -3.13693
O         29.55669        51.33141         2.18471
H         28.67610        51.65163         2.49915
O         23.84077        23.22847        -0.95831
H         24.33151        22.69695        -1.63549
O         16.45248        26.71252        -2.18526
H         16.90788        27.45131        -2.66216
O         28.23262        50.16576        -1.04621
H         27.44935        49.65314        -1.34321
O         28.03490        45.44513        -1.07014
H         28.89518        45.57033        -1.52103
O          9.34500        35.59734        -1.85430
H         10.21521        35.57712        -2.31534
O         18.45343        37.14262         2.85985
H         17.62482        36.71100         3.16024
O         27.68738        18.26420         1.08708
H         27.02115        18.18945         1.81220
O         30.28961        24.00300        -2.64117
H         30.31700        23.21681        -3.23502
O         10.70299        36.91435         2.11600
H         10.65758        37.74491         2.63367
O         16.07988        41.69112        -0.95391
H         17.03925        41.53468        -1.10973
O         17.41337        24.94951         2.55241
H         17.94551        24.55413         3.27229
O         16.71310        42.29012         2.64780
H         15.87980        42.75703         2.86909
O         36.62002        26.90229        -2.63819
H         36.73443        27.85262        -2.85612
O         19.70811        58.72108        -3.51917
H         19.90507        58.19995        -4.32403
O         10.97513        27.21214        -2.90931
H         11.75656        27.73197        -3.21628
O         33.20140        41.86089         2.20164
H         34.09992        41.57847         2.50874
O         15.57113        33.89936        -1.64994
H         16.18540        33.50840        -2.31203
O         23.75222         9.94079         1.16843
H         23.17444        10.34214         1.85068
O         24.82303        39.71854        -0.43358
H         24.08762        39.27045        -0.90361
O         25.88945        35.69782        -0.05339
H         26.70072        36.14997        -0.39549
O         19.39946        46.58476        -1.06101
H         20.19575        47.03189        -1.44693
O         28.03144        49.10997         2.46137
H         28.26239        48.26365         2.89911
O         23.03088        53.90334         1.62415
H         22.89089        53.15795         2.24527
O         21.75829        48.05677        -1.53777
H         22.54801        47.56193        -1.85285
O         14.91411        32.92309         1.77160
H         14.30827        33.30790         2.44343
O         18.24452        44.52414        -0.86659
H         18.51999        43.60379        -1.10037
O         23.60141        10.08530        -2.47660
H         24.22206         9.79846        -3.17975
O         32.77152        22.87965         0.96658
H         33.55526        23.23058         1.43929
O         18.17418        11.51476         2.19692
H         18.10863        12.42700         2.55327
O         25.83101        31.45855         3.51195
H         26.74582        31.70476         3.79832
O         14.68854        39.17843        -0.93215
H         15.00422        40.01543        -1.34829
O         29.01507        41.91565        -1.26301
H         29.77783        42.13158        -1.84026
O         23.51403        14.33482         2.01144
H         24.41809        14.67432         2.18680
O         14.35841        38.30307         2.61934
H         14.17884        37.43225         3.03819
O         17.74026        24.71937        -1.05858
H         17.26740        25.16859        -1.80724
O         26.91548        35.54550         3.49053
H         26.05667        35.16774         3.80584
O          8.61499        35.44501         1.71897
H          7.93482        35.89660         2.25930
O         35.78008        40.62023         2.39236
H         35.92742        39.76430         2.85076
O         19.44304        35.59091        -1.24111
H         20.33108        35.41701        -1.63099
O         20.56289        10.60479        -1.93401
H         21.48772        10.65237        -2.27222
H          5.08574        31.05328        -0.77781
H          5.02517        33.51220        -0.54767
H          7.54017        26.85136        -0.75645
H          6.33700        28.95330        -0.83841
H          6.17502        35.59333         0.00469
H          7.45563        37.82888        -0.08911
H          9.86627        22.59140        -0.49748
H          8.70733        24.74730        -0.60537
H          8.73670        39.94972        -0.23806
H          9.93602        41.85346        -0.79472
H         12.26605        18.22816         0.31603
H         11.02418        20.40426         0.00866
H         11.34368        44.26530        -0.93583
H         12.47283        46.25757        -0.82903
H         14.79735        13.98513         0.21605
H         13.53250        16.11195         0.27569
H         13.71452        48.38032        -1.11343
H         15.02384        50.61887        -1.39043
H         17.31969         9.60585         0.40494
H         16.02006        11.86539         0.25091
H         16.15907        52.77048        -1.43704
H         17.38120        54.92041        -1.64208
H         19.78747         5.48332        -0.62448
H         18.51874         7.55767        -0.20217
H         18.62934        56.95390        -2.12986
H         20.53595        59.17458        -1.69745
H         23.23495         2.21897        -1.26561
H         21.07402         3.38666        -0.87237
H         23.36802        61.55426        -4.97769
H         21.19648        60.68740        -4.08495
H         25.34488         3.50097        -1.54405
H         26.53031         5.69420        -1.66783
H         25.92895        57.37937        -4.26772
H         25.48078        60.27525        -4.55967
H         27.66968         7.89235        -1.89993
H         28.87208        10.04789        -1.92283
H         29.08269        54.75557        -1.27395
H         27.85157        56.66154        -2.26524
H         30.10387        12.20273        -1.78849
H         31.27663        14.37627        -1.93885
H         31.60650        50.83917         0.14537
H         30.34339        52.92834        -0.27624
H         32.41612        16.60870        -2.19600
H         33.58292        18.56759        -2.04863
H         34.09304        46.52039        -0.23389
H         32.72601        48.71579        -0.25730
H         35.06056        20.51074        -1.30797
H         36.34188        22.65253        -1.08647
H         36.56419        42.18851        -0.03258
H         35.33695        44.36366        -0.19653
H         37.59348        24.74384        -1.01069
H         38.91153        26.94427        -0.85271
H         39.09577        37.91007         0.29413
H         37.90625        40.05399         0.51769
H         40.16167        29.05155        -0.57093
H         41.43762        31.13340        -0.30028
H         41.49971        33.58576        -0.00367
H         40.30179        35.75182         0.16099
