         638
 CSIRO Nanostructure Databank - Neutral Graphene Oxide Data Set
C         23.42811        69.98946        -2.84089
C         23.29384        71.28583        -2.08638
C         22.03593        71.82259        -1.78962
C         23.09548        73.75798        -0.80460
C         21.93859        73.06051        -1.15092
C         25.78193        65.64230        -1.96431
C         25.77511        67.04937        -2.04173
C         24.58185        67.78645        -2.31359
C         25.81047        69.87854        -2.12105
C         24.59807        69.17084        -2.35138
C         25.81308        71.39312        -2.09443
C         24.46459        71.98220        -1.73136
C         25.57622        74.03436        -0.65159
C         24.36502        73.22851        -1.08453
C         28.08594        61.37025        -1.18003
C         28.11493        62.77988        -1.26808
C         26.95498        63.51397        -1.59863
C         28.22343        65.63454        -1.59334
C         26.97602        64.92494        -1.71884
C         28.23946        67.04573        -1.72275
C         27.01120        67.76278        -1.91028
C         28.30338        69.94486        -2.05155
C         27.00953        69.17814        -1.97583
C         28.22489        71.29224        -1.38683
C         26.87988        71.87439        -1.07526
C         28.06641        74.09219        -1.01486
C         26.89280        73.37070        -0.95360
C         30.37902        57.06125        -0.36020
C         30.36799        58.49170        -0.37765
C         29.21950        59.21459        -0.73953
C         30.43869        61.33976        -0.47236
C         29.23094        60.63018        -0.81239
C         30.49505        62.76559        -0.63682
C         29.35676        63.48245        -1.03147
C         30.65009        65.58741        -1.13449
C         29.42764        64.91112        -1.25133
C         30.75052        66.97303        -1.74302
C         29.47589        67.76847        -1.61794
C         30.72650        69.88264        -1.39337
C         29.52854        69.15814        -1.66252
C         30.73348        71.39327        -1.50658
C         29.37761        72.04459        -1.32038
C         30.60447        74.24514        -1.32158
C         29.32856        73.45624        -1.14842
C         32.70011        52.67628         0.10720
C         32.73176        54.19258         0.10264
C         31.56859        54.90219        -0.07444
C         32.75913        57.05557         0.22068
C         31.53985        56.34581        -0.08226
C         32.74708        58.47282         0.34712
C         31.55519        59.20835         0.01375
C         32.68515        61.38667         0.63343
C         31.55740        60.61851        -0.00039
C         32.84198        62.77939         0.07255
C         31.75656        63.46000        -0.41987
C         33.04255        65.57198        -0.53377
C         31.84159        64.89979        -0.70980
C         33.18155        67.01490        -0.80126
C         32.00566        67.75717        -1.34461
C         33.07442        69.90274        -0.58486
C         31.92350        69.21799        -1.08773
C         33.02308        71.32454        -0.39572
C         31.68716        72.03196        -0.48989
C         32.88209        74.19191        -0.29060
C         31.79693        73.52721        -0.71626
C         35.27551        48.43474         0.52779
C         35.27427        49.81214         0.64165
C         33.97116        50.55879         0.88107
C         35.17475        52.71836         0.49772
C         34.00665        52.01595         0.48384
C         35.18867        54.15866         0.30589
C         33.99573        54.88836         0.21703
C         35.16741        57.05536         0.62166
C         33.98128        56.33544         0.32300
C         35.13270        58.42890         0.92409
C         33.93525        59.16469         0.73640
C         35.16350        61.27330         0.96754
C         33.97462        60.60697         0.76530
C         35.31210        62.68124         0.56608
C         34.06594        63.54592         0.50796
C         35.46541        65.59804         0.27894
C         34.32011        64.79986        -0.32748
C         35.42400        67.04881         0.28183
C         34.29795        67.75506        -0.16938
C         35.37046        69.90896         0.34510
C         34.25388        69.18977        -0.15621
C         35.34558        71.35111         0.39846
C         34.12100        72.02929         0.06494
C         35.27978        74.21107         0.46160
C         33.97325        73.48024         0.46570
C         37.75714        44.16529         0.27042
C         37.73342        45.58008         0.29289
C         36.51781        46.29788         0.37345
C         37.73138        48.43052         0.23995
C         36.49737        47.70362         0.38784
C         37.69566        49.86371         0.28139
C         36.50301        50.53748         0.56206
C         37.67361        52.71584         0.24397
C         36.46551        52.02564         0.90597
C         37.73552        54.19900         0.47067
C         36.47033        54.87250         0.21618
C         37.71650        57.03624         0.81155
C         36.46687        56.40871         0.41941
C         37.70096        58.37420         1.40770
C         36.34002        59.08883         1.46539
C         37.63460        61.32272         1.80365
C         36.33931        60.57881         1.53759
C         37.70288        62.74723         1.46923
C         36.61658        63.43260         0.80178
C         37.76456        65.63527         1.18076
C         36.56800        64.92167         0.76578
C         37.76226        67.08755         1.08434
C         36.59163        67.77606         0.70919
C         37.72015        69.93635         1.10939
C         36.56414        69.21412         0.73657
C         37.63864        71.40520         1.44078
C         36.46530        72.08713         0.80275
C         37.71190        74.22773         0.80599
C         36.47061        73.53337         0.70463
C         40.21534        39.91290         0.02656
C         40.20920        41.31308         0.15485
C         38.99507        42.03787         0.15919
C         40.22354        44.17401         0.24460
C         38.97089        43.44972         0.22209
C         40.22207        45.58133         0.21066
C         38.97667        46.30771         0.20036
C         40.23773        48.42939        -0.20974
C         38.95322        47.71313         0.12508
C         40.24441        49.87743         0.18154
C         38.96389        50.61951        -0.08056
C         40.23598        52.76650         0.31927
C         38.97702        51.98281         0.60320
C         40.18947        54.17863         0.36640
C         38.94738        54.89702         0.45163
C         40.14098        57.06575         0.88639
C         38.93802        56.35939         0.63803
C         40.15411        58.46073         1.24003
C         38.94933        59.14247         1.45936
C         40.17302        61.34835         1.60716
C         38.95468        60.55170         2.06334
C         40.13575        62.71924         1.54860
C         38.88886        63.49057         1.99071
C         40.17818        65.68350         1.88121
C         38.88878        64.95856         1.61120
C         40.17991        67.15179         1.55619
C         38.96487        67.82376         1.32578
C         40.16933        69.99070         1.43829
C         38.94917        69.26093         1.29776
C         40.14173        71.43699         1.42449
C         38.95259        72.13832         1.29546
C         40.15060        74.28804         0.95423
C         38.94688        73.57297         1.05805
C         42.65198        35.61096        -0.47370
C         42.66016        36.97094         0.15307
C         41.41414        37.77767        -0.06487
C         42.68899        39.87704         0.21807
C         41.42670        39.16397         0.04704
C         42.69286        41.29605         0.35131
C         41.46601        42.02578         0.28717
C         42.69549        44.15856         0.41911
C         41.45805        43.44293         0.31153
C         42.70660        45.58068         0.40462
C         41.47756        46.30011         0.26128
C         42.70261        48.44132         0.28368
C         41.48816        47.70245         0.18974
C         42.69472        49.86174         0.29171
C         41.43774        50.58935         0.26157
C         42.72555        52.76934        -0.00331
C         41.43392        52.04093         0.26170
C         42.72605        54.21380         0.46368
C         41.45504        54.98262         0.18648
C         42.66526        57.00278         1.28325
C         41.38225        56.28171         0.96890
C         42.64349        58.47447         1.29892
C         41.42736        59.16461         1.33892
C         42.62471        61.30303         1.29325
C         41.42521        60.62385         1.39002
C         42.64940        62.75754         1.08791
C         41.31611        63.47788         1.09703
C         42.63753        65.70038         1.20217
C         41.32529        64.97572         1.17994
C         42.64863        67.14699         1.53991
C         41.41043        67.85574         1.54787
C         42.65080        69.99420         1.38356
C         41.41232        69.29709         1.48350
C         42.68363        71.43959         1.35147
C         41.42003        72.15590         1.58559
C         42.71064        74.30541         0.96729
C         41.42896        73.70686         1.32720
C         45.01870        33.00464        -1.66741
C         43.83743        33.61724        -1.29855
C         45.07830        35.72119        -0.87042
C         43.82353        34.98567        -0.85642
C         45.08778        37.08478        -0.55400
C         43.90887        37.76500        -0.13797
C         45.22222        39.82354         0.40827
C         43.90333        39.14750         0.12073
C         45.19698        41.32806         0.42854
C         43.93624        42.02183         0.49846
C         45.15097        44.16995         0.82001
C         43.91105        43.42800         0.55998
C         45.18594        45.61687         0.59151
C         43.94766        46.30827         0.44683
C         45.18697        48.43279         0.39838
C         43.94570        47.72422         0.38076
C         45.19457        49.85336         0.41842
C         43.93406        50.58637         0.39568
C         45.22598        52.72295         0.38089
C         43.93275        51.97402         0.41557
C         45.15313        54.10060         1.07128
C         43.87680        54.86468         0.80384
C         45.12794        56.99887         1.21237
C         43.94323        56.29905         1.06500
C         45.11716        58.44541         1.25392
C         43.90783        59.14124         1.22494
C         45.11638        61.29691         1.64445
C         43.92242        60.62136         0.95404
C         45.14955        62.79348         1.41394
C         43.90245        63.52560         1.32179
C         45.08024        65.67119         1.69934
C         43.87261        64.91177         1.35920
C         45.11299        67.13017         1.50263
C         43.86942        67.84203         1.49395
C         45.11484        69.94354         1.20071
C         43.88136        69.27306         1.37949
C         45.08501        71.36459         0.71472
C         43.86394        72.13312         1.14081
C         45.16850        74.22474         0.80874
C         43.89832        73.57713         0.99447
C         46.24055        33.70783        -1.66450
C         47.52517        35.78498        -1.34468
C         46.29524        35.06689        -1.30233
C         47.58235        37.17071        -1.11584
C         46.30167        37.86918        -0.86923
C         47.64628        39.98210        -0.36242
C         46.34059        39.30559        -0.46653
C         47.66427        41.32524         0.03649
C         46.42004        41.98974         0.39418
C         47.71392        44.17683         0.48114
C         46.48543        43.41154         0.73858
C         47.68483        45.58073         0.50876
C         46.42271        46.29482         0.54039
C         47.65703        48.43047         0.39206
C         46.42216        47.71816         0.42635
C         47.64830        49.84316         0.41344
C         46.43412        50.53533         0.45550
C         47.69975        52.76059         0.60820
C         46.44795        51.96173         0.93083
C         47.65093        54.14765         0.66694
C         46.36955        54.94022         0.59917
C         47.65121        57.05929         0.91505
C         46.44526        56.26389         1.36357
C         47.61413        58.47970         0.94262
C         46.38496        59.18210         1.17192
C         47.61690        61.30193         1.08858
C         46.40575        60.58087         1.28335
C         47.61928        62.76418         1.13553
C         46.36412        63.45687         1.35408
C         47.58885        65.68110         1.25914
C         46.40830        64.90470         1.60157
C         47.57724        67.07203         1.27297
C         46.33261        67.80818         1.40337
C         47.57897        69.93867         1.05094
C         46.34025        69.23994         1.22542
C         47.57161        71.36632         0.90506
C         46.38985        72.09013         0.88454
C         47.64292        74.23023         0.80620
C         46.39170        73.53683         0.81127
C         48.77860        37.90924        -1.10809
C         50.05876        40.00755        -0.71182
C         48.83567        39.29353        -0.75314
C         50.09972        41.36866        -0.35849
C         48.89433        42.05388         0.00243
C         50.15852        44.17970         0.14624
C         48.92534        43.46626         0.22241
C         50.15624        45.59978         0.24113
C         48.91961        46.30970         0.37164
C         50.12551        48.46600         0.14975
C         48.90639        47.72667         0.35852
C         50.14919        49.87558         0.17856
C         48.93428        50.58213         0.71201
C         50.11930        52.73950         0.09373
C         48.91977        52.05624         0.42779
C         50.17113        54.18621         0.38453
C         48.89342        54.91063         0.76624
C         50.07967        57.09358         0.51836
C         48.84948        56.38802         0.68454
C         50.07318        58.50151         0.57070
C         48.83155        59.20166         0.74671
C         50.01971        61.35622         0.27488
C         48.80159        60.62030         0.77060
C         50.04570        62.81279         0.65903
C         48.79121        63.47449         0.94699
C         50.05050        65.67166         1.02833
C         48.77335        64.96084         0.69320
C         50.06084        67.06041         1.09339
C         48.81338        67.79261         1.08931
C         50.07614        69.88531         1.06879
C         48.81938        69.20398         1.06112
C         50.05700        71.35675         1.17615
C         48.87021        72.06177         0.56217
C         50.11261        74.22512         0.80004
C         48.87194        73.55621         0.79956
C         51.33466        42.10447        -0.35576
C         52.72442        44.14974        -0.00777
C         51.37875        43.45613        -0.09604
C         52.67057        45.66474        -0.04332
C         51.36995        46.34190         0.03975
C         52.53999        48.41693        -0.62893
C         51.32162        47.72390        -0.09259
C         52.47702        49.91278        -0.58396
C         51.32116        50.61902        -0.25118
C         52.39684        52.87587        -1.00448
C         51.27884        52.07167        -0.32809
C         52.49660        54.34457        -0.49487
C         51.35056        54.98348         0.01279
C         52.54225        57.10946         0.35041
C         51.32143        56.38168         0.29157
C         52.57579        58.52623         0.55821
C         51.32773        59.24476         0.57324
C         52.56724        61.41991         0.82081
C         51.30583        60.63263         0.59894
C         52.46177        62.81203         0.12977
C         51.22451        63.50437         0.63826
C         52.55973        65.64073         1.02294
C         51.29186        64.87066         1.28088
C         52.56227        67.03925         1.09161
C         51.31573        67.77753         1.12904
C         52.57217        69.95069         0.78169
C         51.29911        69.18870         1.09572
C         52.60047        71.36649         1.27609
C         51.35643        72.11478         1.29758
C         52.58094        74.15129         0.62406
C         51.36205        73.54843         0.90597
C         53.82444        46.38259        -0.03775
C         55.04050        48.61972        -0.40160
C         53.80321        47.89670         0.08032
C         55.01495        49.92223        -0.82993
C         53.68163        50.58913        -1.15181
C         54.85302        52.60861        -1.52655
C         53.70661        52.08824        -0.99477
C         54.92294        54.70412        -1.10371
C         53.68687        55.13831        -0.49603
C         55.04625        57.03743         0.53742
C         53.74229        56.41112         0.09139
C         55.05509        58.53648         0.28552
C         53.82667        59.23389         0.44987
C         55.00325        61.36631         0.19389
C         53.82521        60.66786         0.43113
C         54.98035        62.85461        -0.10396
C         53.73858        63.56978         0.36429
C         55.06306        65.55445         1.02058
C         53.76526        64.87387         0.79453
C         55.07933        67.05181         1.20203
C         53.80685        67.79647         1.09213
C         55.08816        69.90690         1.04270
C         53.83539        69.17566         1.05314
C         55.11637        71.31353         1.08901
C         53.88444        72.11220         1.46991
C         55.03172        74.11812         0.56054
C         53.84611        73.48779         0.80859
C         56.22597        50.68539        -1.03339
C         57.32653        52.91872        -1.42647
C         56.18477        52.04350        -1.36582
C         57.35688        54.31794        -1.18857
C         56.18066        55.05350        -0.71033
C         57.56727        57.08632        -0.21176
C         56.31465        56.30700         0.06844
C         57.51669        58.56453        -0.16699
C         56.26586        59.24146         0.08104
C         57.45922        61.39945        -0.17043
C         56.24149        60.67260         0.01501
C         57.46940        62.82649        -0.00667
C         56.27141        63.53572         0.25225
C         57.52107        65.62617         0.50534
C         56.30426        64.89161         0.57654
C         57.53327        67.05801         0.69291
C         56.33794        67.76892         0.92820
C         57.56050        69.88958         0.81476
C         56.32413        69.18420         0.91942
C         57.55054        71.32143         0.77930
C         56.33928        72.01007         0.92864
C         57.53730        74.14805         0.36277
C         56.33795        73.52039         1.01568
C         58.56925        55.05299        -1.28679
C         59.81249        57.18974        -1.22329
C         58.66586        56.42774        -0.96794
C         59.87822        58.58271        -0.91782
C         58.67484        59.27617        -0.47241
C         59.90082        61.43810        -0.59321
C         58.68765        60.71501        -0.40334
C         59.85278        62.86268        -0.59139
C         58.68431        63.54877        -0.12088
C         59.93265        65.68513        -0.05273
C         58.69993        64.95895         0.08385
C         59.98754        67.06641         0.25081
C         58.76858        67.77545         0.57646
C         60.07391        69.92350         0.86879
C         58.77752        69.17082         0.71358
C         59.96686        71.34031         0.33976
C         58.78487        72.02199         0.44124
C         59.91156        74.13184        -0.25598
C         58.71513        73.46134         0.14842
C         61.06293        59.30555        -1.06158
C         62.43931        61.24545        -0.56366
C         61.16390        60.70107        -0.73406
C         62.79144        62.56027        -0.00705
C         60.89786        63.70237        -1.09993
C         62.36138        65.66266        -0.47266
C         61.08980        65.01827        -0.56648
C         62.39805        67.03328        -0.20563
C         61.21812        67.76549         0.10173
C         62.47072        69.87901         0.13570
C         61.28669        69.18623         0.34157
C         62.48853        71.37872         0.33580
C         61.19151        71.96134        -0.28103
C         62.34637        74.19355        -0.36093
C         61.16073        73.47571        -0.30574
C         63.63050        63.42834        -0.66792
C         64.77603        65.66424        -1.00911
C         63.69491        64.89053        -0.28891
C         64.79517        67.02296        -0.93154
C         63.75097        67.71748        -0.07412
C         64.67726        69.90925        -0.93898
C         63.64425        69.20220        -0.33748
C         64.59673        71.36517        -1.02000
C         63.66065        72.06479        -0.31637
C         64.62898        74.24505        -1.12897
C         63.70242        73.56969        -0.16750
C         65.84125        67.82927        -1.51904
C         67.04076        69.95408        -1.97589
C         65.81894        69.20146        -1.49277
C         66.75113        71.35827        -2.46256
C         65.51906        72.07599        -1.93603
C         66.50479        74.22428        -2.70448
C         65.50745        73.55405        -1.94750
C         67.85648        72.20147        -2.91972
C         67.66907        73.55321        -3.12920
O         41.89363        56.29736         2.33675
O         57.35746        56.37454         1.08492
O         46.47920        51.76121         2.33816
O         45.99209        38.95848        -1.83860
O         49.81409        54.42084         1.79741
O         33.11540        67.39408        -2.25802
O         45.85944        43.73213         2.02762
O         36.63662        61.08259         2.89246
O         65.54233        71.47012        -3.27477
O         45.79324        65.23995         2.89900
O         36.54283        55.80109        -0.92089
O         41.42973        73.09479         2.67734
O         54.78019        53.83863        -2.19239
O         41.91446        63.05102        -0.16961
O         41.82369        65.55397        -0.04396
O         64.13190        67.57606         1.29595
O         36.26734        62.80200        -0.51961
O         50.46205        71.83819         2.48323
O         36.87601        58.46124         2.66227
O         55.16158        66.14549         2.36353
O         53.61402        43.65861        -1.01983
H         53.31363        44.00822        -1.88368
O         61.21623        71.51867        -1.67092
H         60.44622        71.91778        -2.12749
O         31.19889        71.69131        -2.85464
H         30.59268        71.21139        -3.46608
O         30.81799        74.42296        -2.73727
H         31.03127        73.52657        -3.10150
O         64.15499        73.86618         1.19741
H         63.53029        73.39882         1.79968
O         30.84451        66.72496        -3.18481
H         31.80929        66.69349        -3.39295
O         52.32693        62.59669        -1.30146
H         51.44271        62.17028        -1.47211
O         40.50037        65.56447         3.31868
H         39.91012        66.17834         3.80628
O         26.42456        71.32327         0.20574
H         27.11648        71.51314         0.87436
O         32.31475        52.19350        -1.20855
H         32.98536        52.50983        -1.85001
O         62.21746        62.90699         1.17103
H         62.66066        63.74761         1.47463
O         49.02960        71.88610        -0.88507
H         48.31283        72.39012        -1.32547
O         36.49184        52.14361         2.34494
H         37.34538        51.74898         2.65191
O         55.00981        56.90073         1.99275
H         55.95044        56.84427         2.28650
O         61.54027        63.35318        -2.22370
H         61.32841        62.42756        -2.46648
O         46.65069        55.99847         2.76774
H         46.47495        56.81940         3.27112
O         51.29303        64.59467         2.73641
H         51.61931        65.39896         3.19409
O         56.42644        73.83797         2.46727
H         57.27246        73.46137         2.79357
O         39.08814        60.36558         3.48724
H         38.17744        60.21734         3.83639
O         45.59212        39.41044         1.77159
H         45.13130        40.00183         2.40361
O         37.38328        52.61186        -1.17126
H         38.18145        52.87068        -1.67772
O         54.96224        62.93722        -1.57644
H         54.03444        62.72726        -1.85502
O         52.67911        61.71751         2.24329
H         52.68837        60.86795         2.73217
O         44.09111        60.77393        -0.48961
H         43.48722        61.48031        -0.80682
O         53.65196        48.22360         1.49244
H         54.43058        47.87393         1.97324
O         32.88005        49.87455         0.26325
H         32.58790        50.39318        -0.52192
O         44.93555        71.24580        -0.77022
H         45.64624        70.64355        -1.08015
O         41.51367        55.35484        -1.24442
H         40.63576        55.71709        -1.49442
O         26.18400        71.87183        -3.41849
H         25.45361        71.58992        -4.02058
O         63.92221        64.94515         1.14743
H         64.05972        65.92112         1.39754
O         28.50576        70.28657        -3.47718
H         27.74721        70.87778        -3.72717
O         31.06556        71.86482         0.81949
H         31.65961        72.31417         1.46670
O         60.26405        70.06793         2.31856
H         61.04588        70.66283         2.43821
O         46.19164        55.35066        -0.78007
H         46.04681        54.52120        -1.30406
O         62.47803        71.67076         1.76885
H         63.21641        71.16213         2.16999
O         34.70636        64.39407        -1.66669
H         34.79053        65.20356        -2.21332
O         23.71836        70.33675        -4.22073
H         23.84461        69.50242        -4.71916
O         25.52655        75.35150        -1.21504
H         25.58652        75.26909        -2.18890
O         32.27823        61.60533         2.05223
H         31.33182        61.86719         2.04491
O         39.02893        51.70762         2.03639
H         39.46114        52.46685         2.48189
O         52.53529        70.10312        -0.70462
H         52.38488        69.20867        -1.08096
O         48.99467        50.56351         2.18805
H         48.12829        50.97706         2.49189
O         33.80011        63.98126         1.86933
H         33.39162        63.21606         2.34406
O         49.91597        61.32376        -1.21244
H         49.78486        60.38688        -1.47527
O         45.14918        53.93730         2.48803
H         45.75829        53.17871         2.73843
O         42.83317        52.87882        -1.49702
H         42.32551        53.69225        -1.75000
O         40.27246        48.43537        -1.71384
H         41.16852        48.74209        -1.97510
O         37.34385        71.44738         2.90431
H         38.16124        71.16841         3.37087
O         48.64016        65.06133        -0.78807
H         48.63988        66.01695        -1.01250
O         45.49453        52.87474        -1.05548
H         44.60976        52.88510        -1.51508
O         51.99001        52.96230        -2.41770
H         52.69867        53.47531        -2.87015
O         53.52291        50.42723        -2.63387
H         52.79960        51.04611        -2.89792
O         38.83572        63.42955         3.44956
H         39.60727        63.94780         3.78307
O         44.90053        61.12221         3.07404
H         45.59907        61.61600         3.55282
O         38.98001        50.79994        -1.52711
H         39.19240        49.91372        -1.91766
O         52.62087        47.99790        -2.02598
H         53.06108        48.72608        -2.53602
O         33.48993        73.43335         1.87449
H         34.23313        73.08811         2.41665
O         42.69933        36.71973         1.62926
H         42.90125        37.58052         2.05670
O         54.01448        72.37915         2.90699
H         54.80223        72.97200         3.01080
O         67.97290        70.07321        -0.88732
H         67.99395        69.22221        -0.40282
H         23.02201        74.73515        -0.30699
H         25.50662        74.17306         0.46550
H         28.02350        75.18888        -0.92607
H         30.49797        75.26554        -0.87438
H         32.94629        75.28694        -0.39150
H         35.27851        75.30924         0.39331
H         37.71549        75.31790         0.65647
H         40.13419        75.30734         0.53959
H         42.72645        75.35722         0.64415
H         45.18042        75.32299         0.73414
H         47.63441        75.32962         0.86692
H         50.12168        75.32207         0.69809
H         52.59680        75.19722         0.27909
H         55.03836        75.13563         0.13892
H         57.51195        75.23549         0.19140
H         59.88523        75.22753        -0.36223
H         62.30132        75.29188        -0.43290
H         64.64991        75.34593        -1.12418
H         66.45100        75.31846        -2.80214
H         22.47223        69.39859        -2.80154
H         21.12763        71.26988        -2.06998
H         20.95139        73.48527        -0.92261
H         24.83703        65.08952        -2.07369
H         23.64597        67.24014        -2.50779
H         27.15001        60.83794        -1.40593
H         26.00577        62.97852        -1.74869
H         29.45303        56.52138        -0.60876
H         28.29727        58.67241        -0.99649
H         31.89590        52.32329         0.80465
H         30.62065        54.36228        -0.21933
H         34.32316        47.88685         0.57399
H         33.78767        50.53645         2.00052
H         36.80643        43.61156         0.29055
H         35.57087        45.74250         0.44872
H         39.26041        39.37758        -0.08359
H         38.04405        41.48714         0.10291
H         41.70013        35.05956        -0.51164
H         40.45063        37.25140        -0.14513
H         45.01124        31.94990        -1.97723
H         42.89293        33.05448        -1.30993
H         47.16231        33.19615        -1.97673
H         48.44966        35.23734        -1.58358
H         49.72214        37.39034        -1.33683
H         50.99249        39.49484        -0.98732
H         52.27058        41.57008        -0.57700
H         53.18168        43.84834         0.97739
H         54.79227        45.85589        -0.02625
H         56.01605        48.12508        -0.25619
H         57.18673        50.20889        -0.78506
H         58.30839        52.42989        -1.54014
H         59.45887        54.55056        -1.69719
H         60.68911        56.70973        -1.68414
H         61.98681        58.76636        -1.32092
H         63.28520        60.61508        -0.88603
H         64.05707        63.11936        -1.63296
H         65.55198        65.12063        -1.57146
H         66.69732        67.31197        -1.98361
H         67.52768        69.36484        -2.81004
H         68.84298        71.74441        -3.08245
H         68.48914        74.14890        -3.55615
