         430
 CSIRO Nanostructure Databank - Neutral Graphene Oxide Data Set
C         27.96117        27.40176         1.09635
C         27.93581        28.84323         0.92543
C         26.76440        29.57354         1.04009
C         27.89961        31.69515         0.57832
C         26.76856        30.99485         0.94838
C         27.93842        33.13703         0.46444
C         26.72317        33.93302         0.64824
C         28.08922        35.99550         0.83034
C         26.76093        35.27108         0.79496
C         28.01549        37.47246         0.48366
C         26.89033        38.27654         0.88522
C         27.82641        40.20522        -0.37234
C         26.80706        39.59264         0.55854
C         27.89423        41.71511        -0.33022
C         26.70852        42.45145        -0.22595
C         27.89728        44.57332        -0.30052
C         26.71693        43.86202        -0.14483
C         27.96407        45.98967        -0.13363
C         30.43327        27.47143         1.35130
C         29.12690        26.73180         1.20835
C         30.38421        28.84708         0.71705
C         29.18171        29.51625         0.63018
C         30.40178        31.66856         0.16867
C         29.09966        30.91795         0.07684
C         30.38367        33.07961         0.05996
C         29.12899        33.79175         0.17547
C         30.41786        35.97117        -0.10091
C         29.07535        35.27806        -0.09903
C         30.40973        37.37495        -0.13054
C         29.16576        38.11285         0.01093
C         30.36268        40.23565        -0.37050
C         29.16824        39.53331        -0.21486
C         30.36658        41.68067        -0.51210
C         29.13667        42.38145        -0.48389
C         30.40987        44.57117        -0.56645
C         29.11343        43.85214        -0.82095
C         30.41458        45.95932        -0.37135
C         29.15854        46.65731        -0.19928
C         32.86721        24.57216         0.86308
C         31.69422        25.27804         1.02516
C         32.87864        27.39100         0.75687
C         31.67570        26.68967         0.97877
C         32.83881        28.82652         0.55725
C         31.63813        29.51563         0.44678
C         32.82384        31.64970        -0.10157
C         31.61867        30.95626         0.16693
C         32.80503        33.04446        -0.27060
C         31.60621        33.78474        -0.12983
C         32.84820        35.94292        -0.37982
C         31.62775        35.24086        -0.22344
C         32.85394        37.37856        -0.39468
C         31.62653        38.10143        -0.28364
C         32.84164        40.23316        -0.46687
C         31.62011        39.52278        -0.36434
C         32.84242        41.66819        -0.57147
C         31.60959        42.38350        -0.61356
C         32.85326        44.53327        -0.72086
C         31.63056        43.83409        -0.65399
C         32.88149        45.96325        -0.58175
C         31.66974        46.66761        -0.32003
C         32.95851        48.72415        -0.06254
C         31.75011        48.06022        -0.05839
C         35.38378        23.08591         0.51211
C         35.33510        24.50749         0.67654
C         34.12406        25.23922         0.74243
C         35.36493        27.39051         0.53244
C         34.12623        26.68112         0.69299
C         35.37770        28.80177         0.34910
C         34.12176        29.61718         0.55891
C         35.36799        31.58842        -0.29004
C         34.06869        30.82315        -0.37801
C         35.36114        33.00475        -0.64753
C         34.04530        33.76094        -0.63987
C         35.31767        35.88931        -0.54120
C         34.09958        35.22904        -0.50685
C         35.35473        37.37356        -0.79648
C         34.06516        38.09548        -0.50474
C         35.32208        40.23397        -0.48834
C         34.07695        39.50677        -0.47870
C         35.30348        41.63062        -0.59623
C         34.09005        42.35803        -0.65165
C         35.30230        44.50238        -0.85505
C         34.10837        43.80676        -0.77869
C         35.32748        45.97153        -1.17686
C         34.11465        46.68045        -0.64439
C         35.45698        48.76761        -0.42803
C         34.17287        48.05245        -0.37706
C         35.50713        50.13166        -0.06036
C         37.89331        23.02108         0.62478
C         36.54496        22.37113         0.43898
C         37.79158        24.49373         0.17783
C         36.64346        25.22541         0.89354
C         37.82940        27.37298         0.43017
C         36.61274        26.69233         0.53318
C         37.83957        28.80329         0.25976
C         36.58054        29.48870         0.16213
C         37.82321        31.62146        -0.20369
C         36.57420        30.92386        -0.08620
C         37.81992        33.05601        -0.35570
C         36.60139        33.76774        -0.47382
C         37.80434        35.87020        -0.21462
C         36.58016        35.17954        -0.46032
C         37.79308        37.32049         0.07443
C         36.52066        38.07384        -0.14113
C         37.78936        40.19563        -0.15705
C         36.58078        39.53849        -0.30944
C         37.76505        41.69542         0.01850
C         36.63316        42.31924        -0.79728
C         37.86627        44.54405        -0.62045
C         36.56353        43.80819        -0.55705
C         37.84703        45.96396        -1.01307
C         36.65008        46.68433        -0.94259
C         37.99642        48.82146        -0.70468
C         36.65146        48.09743        -0.80022
C         37.81258        50.34982        -0.82312
C         36.65179        50.90111        -0.27279
C         40.22179        20.31364        -0.77302
C         39.09987        20.94242        -0.30016
C         40.26840        23.09868        -0.17130
C         39.05702        22.34944        -0.07941
C         40.29974        24.53460         0.12054
C         39.10357        25.23522         0.29428
C         40.32061        27.35727         0.37133
C         39.09969        26.65138         0.39899
C         40.32647        28.83753         0.64979
C         39.04627        29.52103         0.23803
C         40.29769        31.61716        -0.14050
C         39.05782        30.92487        -0.02689
C         40.29763        33.02902        -0.65351
C         39.03600        33.77947        -0.33488
C         40.31053        35.86649         0.22791
C         39.02252        35.17531        -0.17697
C         40.28621        37.37714         0.11126
C         39.06246        38.07453         0.07694
C         40.26983        40.21663         0.05193
C         39.03830        39.49065         0.00768
C         40.29355        41.64959        -0.09995
C         39.08634        42.37907        -0.26923
C         40.36324        44.42997        -0.63322
C         39.12762        43.75054        -0.57780
C         40.41386        45.84231        -1.06336
C         39.11622        46.61696        -1.34087
C         40.48885        48.71830        -1.35044
C         39.08961        48.13212        -1.58829
C         40.65743        50.06448        -1.61367
C         38.83978        51.22371        -1.28645
C         40.51250        53.01256        -0.98822
C         39.20338        52.49675        -0.83365
C         42.72836        20.36352        -1.16057
C         41.42291        21.11470        -1.18377
C         42.73621        23.08935        -0.15907
C         41.45930        22.44475        -0.48783
C         42.77420        24.55690        -0.06311
C         41.54019        25.24990         0.07895
C         42.80568        27.37808         0.12681
C         41.54768        26.66928         0.21452
C         42.79061        28.82618         0.06251
C         41.57653        29.52895         0.16269
C         42.77115        31.64435        -0.26888
C         41.53889        30.93333        -0.05504
C         42.75379        33.10435        -0.33668
C         41.56783        33.78342        -0.38200
C         42.78442        35.97219        -0.12459
C         41.50919        35.28094        -0.54084
C         42.76726        37.35435         0.16286
C         41.50014        38.07925         0.17775
C         42.71904        40.22993         0.38186
C         41.50109        39.51275         0.20385
C         42.74999        41.63322         0.24215
C         41.53966        42.34004        -0.08552
C         42.81400        44.46180        -0.23496
C         41.57091        43.74758        -0.32244
C         42.82221        45.89420        -0.38296
C         41.64667        46.58972        -0.76236
C         42.83303        48.74430        -0.59048
C         41.63584        48.00454        -0.88416
C         42.91939        50.14266        -0.78865
C         41.78154        50.84677        -1.23200
C         42.96383        52.98155        -0.92592
C         41.70645        52.28822        -1.15649
C         43.90799        20.93382        -0.87717
C         45.26045        23.12385        -0.47428
C         44.01721        22.32378        -0.35397
C         45.23779        24.50505        -0.21693
C         44.00878        25.23424        -0.05676
C         45.26906        27.40365        -0.15211
C         44.01610        26.67830        -0.00088
C         45.25053        28.82424        -0.27096
C         44.00891        29.53333        -0.20106
C         45.21952        31.69067        -0.76948
C         43.97654        30.94920        -0.34669
C         45.22275        33.14254        -0.35538
C         44.02011        33.82822        -0.27360
C         45.22647        35.96352         0.06051
C         43.99867        35.25990        -0.10305
C         45.21546        37.37366         0.29385
C         43.97774        38.04567         0.39307
C         45.23284        40.21094         0.73562
C         43.92678        39.46925         0.87948
C         45.16867        41.68869         1.04541
C         43.97046        42.37545         0.40203
C         45.27769        44.47969         0.23391
C         43.99277        43.74716         0.14445
C         45.28110        45.98093         0.22091
C         43.98552        46.66079        -0.02182
C         44.95590        48.81621         0.76117
C         43.95847        48.04174        -0.05271
C         45.19685        50.24184         0.28532
C         44.26488        50.83297        -0.75298
C         44.12930        52.33525        -0.69977
C         47.67324        23.19264        -0.90357
C         46.47751        22.48625        -0.83158
C         47.74876        24.55018        -0.55703
C         46.53876        25.22371         0.04450
C         47.72425        27.41082        -0.33523
C         46.49786        26.71033        -0.20982
C         47.72620        28.84137        -0.36528
C         46.48971        29.54991        -0.37233
C         47.70775        31.69046        -0.40606
C         46.49988        30.96892        -0.44350
C         47.70360        33.14004        -0.34748
C         46.46799        33.84462        -0.25622
C         47.68769        35.97598         0.02391
C         46.45949        35.25441        -0.03404
C         47.67484        37.40540         0.25010
C         46.46182        38.09105         0.41730
C         47.70547        40.23628         0.80312
C         46.43472        39.53323         0.64991
C         47.71421        41.67164         0.93738
C         46.48217        42.40419         0.83609
C         47.69980        44.56290         0.79361
C         46.49344        43.78444         0.69942
C         47.66766        45.97155         0.97723
C         46.42276        46.71588         0.83794
C         47.14992        48.92008         1.83295
C         46.24345        48.07720         1.08654
C         47.11354        50.29028         1.77557
C         46.20777        50.94216         0.86079
C         50.22244        24.61310        -0.76916
C         48.97554        25.27745        -0.58812
C         50.20412        27.41957        -0.47450
C         48.97189        26.70060        -0.43824
C         50.20151        28.85300        -0.41194
C         48.95907        29.56353        -0.38784
C         50.18896        31.71284        -0.36190
C         48.95474        30.98755        -0.37459
C         50.18953        33.14566        -0.36957
C         48.92710        33.86370        -0.32503
C         50.13436        36.06105        -0.33446
C         48.89707        35.27865        -0.18459
C         50.15766        37.46360         0.11410
C         48.92859        38.12268         0.35318
C         50.19452        40.16065         0.96499
C         48.90661        39.50667         0.70299
C         50.19924        41.69904         1.10750
C         48.92510        42.40552         0.95291
C         50.18960        44.51004         0.77918
C         48.95210        43.82827         0.85733
C         50.17183        46.00775         0.55965
C         48.95179        46.63162         1.21056
C         50.35901        48.50581         2.02290
C         49.12127        47.78557         1.94156
C         51.40995        25.30284        -0.74008
C         52.68423        27.43680        -0.53357
C         51.44070        26.71672        -0.58084
C         52.66957        28.85638        -0.43597
C         51.42683        29.56876        -0.40158
C         52.65999        31.71644        -0.30288
C         51.42463        31.00226        -0.35599
C         52.65686        33.13919        -0.26888
C         51.42072        33.83560        -0.34501
C         52.69171        36.02655        -0.13073
C         51.44751        35.30599        -0.44432
C         52.66576        37.42170         0.05982
C         51.41385        38.13730         0.20370
C         52.66159        40.24212         0.56781
C         51.44541        39.50679         0.56290
C         52.66298        41.67202         0.69823
C         51.45387        42.40131         0.83194
C         52.68106        44.52752         0.64312
C         51.42695        43.81243         0.71648
C         52.68190        45.98226         0.72072
C         51.48890        46.66956         0.91046
C         51.49491        47.99182         1.46087
C         55.12672        27.44996        -0.51063
C         53.94026        26.76018        -0.57065
C         55.13669        28.87039        -0.41788
C         53.90248        29.57712        -0.38560
C         55.13775        31.70681        -0.24767
C         53.90485        31.00386        -0.30591
C         55.13050        33.15016        -0.16189
C         53.90444        33.85981        -0.18529
C         55.14487        35.99941         0.02966
C         53.91252        35.29469        -0.08766
C         55.13976        37.43391         0.11945
C         53.90453        38.13566         0.19370
C         55.12879        40.28275         0.31745
C         53.90057        39.55608         0.35782
C         55.11933        41.70975         0.38871
C         53.89737        42.39251         0.59559
C         55.18712        44.53279         0.95358
C         53.88131        43.82635         0.67073
C         55.13362        45.99983         0.63894
C         53.96097        46.66807         0.64185
C         56.35636        29.59399        -0.36019
C         56.35389        30.96874        -0.27495
C         56.34638        33.88230        -0.04577
C         56.35506        35.25338         0.04620
C         56.35343        38.18079         0.14385
C         56.34819        39.55213         0.21047
C         56.32203        42.48945         0.14061
C         56.35974        43.82278         0.33930
O         50.77775        35.83903        -1.64615
O         34.62059        33.28264        -1.91805
O         43.42769        22.42139         0.99436
O         39.64426        50.71828        -2.31936
O         48.07248        48.32202         2.70712
O         39.86080        45.97850        -2.43845
O         36.87181        37.63561         1.20578
O         45.63076        45.22324        -1.00122
O         37.14267        44.33744         0.67775
O         50.26572        40.81404         2.27594
O         28.61360        35.89976         2.18351
H         28.01475        36.39798         2.77739
O         44.89089        50.52240        -2.04945
H         44.30226        50.87304        -2.75110
O         28.95981        43.87664        -2.30404
H         28.15860        43.34823        -2.51213
O         40.36669        28.96549         2.12581
H         41.17524        28.50319         2.43436
O         34.23445        30.18830         1.90312
H         34.20177        29.45064         2.54782
O         35.19239        46.03050        -2.65585
H         34.25071        45.85857        -2.87236
O         50.03909        46.19419        -0.89551
H         49.15679        45.84918        -1.15333
O         27.36430        39.88301        -1.73922
H         27.36505        38.90436        -1.81723
O         44.92161        41.79935         2.49412
H         44.29711        41.06701         2.73251
O         37.46684        24.45134        -1.23614
H         37.36127        25.37441        -1.54991
O         35.60112        37.52052        -2.23725
H         34.90221        37.02503        -2.71432
O         40.26086        32.91906        -2.15104
H         41.00819        32.33667        -2.41191
O         30.58866        27.72024         2.80167
H         29.81080        28.24605         3.08696
O         33.96115        30.35101        -1.74735
H         34.03210        31.14462        -2.32504
O         43.70566        39.36186         2.35804
H         44.38035        38.73803         2.70432
O         55.38027        44.43855         2.41541
H         54.59247        44.84284         2.83739
O         45.16057        31.70993        -2.24851
H         45.95835        32.18589        -2.56443
O         36.99226        42.13587        -2.19493
H         36.24395        42.43567        -2.75209
O         44.25551        48.97087         2.05723
H         44.85130        49.48319         2.64641
O         41.30962        35.55044        -1.95742
H         40.81201        34.78560        -2.33776
O         38.47528        48.63270         0.66299
H         37.77910        48.95401         1.27439
O         37.45496        41.89547         1.42349
H         38.19359        41.53211         1.95434
O         46.73743        25.10437         1.51564
H         46.65087        24.15257         1.73938
O         41.20882        21.43396        -2.62606
H         40.31666        21.83724        -2.70047
O         38.70286        48.31860        -2.95540
H         39.19639        47.65805        -3.48959
O         36.90880        25.19616         2.34073
H         36.14625        25.61936         2.78896
O         38.23948        22.92717         2.03175
H         37.73777        23.63175         2.51074
O         28.53469        35.42952        -1.44905
H         29.07890        34.88174        -2.05294
O         40.52928        35.54597         1.62955
H         39.79508        35.93635         2.14885
O         28.86045        30.76785        -1.37664
H         28.03035        30.25415        -1.47556
H         27.00084        26.86402         1.11108
H         25.82419        29.05756         1.28193
H         25.83966        31.52565         1.19986
H         25.75320        33.41545         0.67273
H         25.82750        35.82951         0.96133
H         26.09418        37.81497         1.48944
H         25.93409        40.18021         0.87663
H         25.74739        41.92748        -0.13581
H         25.78310        44.39458         0.08932
H         27.03569        46.54117         0.07867
H         29.10526        25.64234         1.34968
H         29.16187        47.74725        -0.06786
H         32.83308        23.47577         0.90326
H         30.76565        24.71707         1.19401
H         32.95708        49.80086         0.14980
H         30.83982        48.63382         0.16027
H         34.43611        22.53883         0.39721
H         34.60784        50.64180         0.30532
H         36.48423        21.27926         0.32245
H         36.58077        51.99327        -0.15639
H         40.21831        19.22902        -0.95558
H         38.21319        20.33735        -0.06182
H         40.64262        54.07569        -0.72406
H         38.49077        53.09277        -0.24355
H         42.69927        19.31770        -1.50395
H         42.94002        54.08244        -0.89440
H         44.82522        20.32941        -0.94673
H         45.04440        52.92769        -0.55321
H         48.56718        22.66325        -1.26075
H         46.47728        21.41915        -1.08831
H         47.83012        50.88477         2.35612
H         46.37898        52.00309         0.63159
H         50.24912        23.52209        -0.88924
H         50.37590        49.46047         2.56460
H         52.34551        24.73951        -0.84957
H         52.44734        48.52753         1.57813
H         56.08395        26.90949        -0.53416
H         53.97181        25.66505        -0.63879
H         56.08313        46.54411         0.52399
H         53.95992        47.75681         0.48558
H         57.30770        29.04336        -0.38583
H         57.31770        31.49242        -0.23597
H         57.30688        33.35230        -0.01816
H         57.32001        35.76711         0.14418
H         57.31892        37.66186         0.08558
H         57.30728        40.08631         0.21282
H         57.21000        41.98026        -0.26003
H         57.27491        44.39665         0.13086
