         429
 CSIRO Nanostructure Databank - Neutral Graphene Oxide Data Set
C          1.37015         3.33464         0.37893
C          0.16965         4.01230         0.45383
C          1.29079         6.17124         0.15250
C          0.12610         5.41634         0.33882
C          1.24343         7.62210        -0.04552
C          0.11858         8.37083         0.15166
C          1.21424        10.48012        -0.49590
C          0.11035         9.78741        -0.08022
C          1.18751        11.93623        -0.51344
C          0.04328        12.65182        -0.85375
C          1.10692        14.82570        -0.47574
C          0.02936        14.06852        -0.90158
C          1.11958        16.27389        -0.49040
C         -0.05360        17.00897        -0.79622
C          1.12647        19.13291        -0.56511
C         -0.05505        18.38966        -0.81094
C          1.13359        20.57747        -0.63540
C         -0.07527        21.30333        -0.76071
C          1.12668        23.42280        -0.87666
C         -0.08143        22.67964        -0.85414
C          1.11644        24.84461        -1.04925
C         -0.06703        25.60360        -1.04445
C          1.11926        27.76619        -1.05545
C         -0.06729        26.99498        -1.02247
C          1.12697        29.15841        -0.84907
C         -0.04313        29.88098        -0.49720
C          1.20380        31.98892        -0.23411
C         -0.02192        31.23514        -0.25958
C          1.20231        33.37350         0.11755
C          0.00454        34.07688         0.54164
C          1.15046        36.27047         0.28774
C         -0.01793        35.41970         0.71105
C          1.22632        37.60691         0.97559
C          3.82638         3.38712         0.17017
C          2.59054         4.05548         0.20842
C          3.77918         6.20857        -0.00619
C          2.55166         5.48817         0.10216
C          3.71590         7.71618         0.09495
C          2.48547         8.23139        -0.68226
C          3.69143        10.52112        -0.12496
C          2.53331         9.79985        -0.83052
C          3.58535        11.95731         0.02166
C          2.39541        12.64223        -0.16669
C          3.53660        14.88851         0.18064
C          2.24991        14.10626         0.19949
C          3.53706        16.26887         0.10417
C          2.31605        16.99991        -0.20947
C          3.56770        19.15745        -0.13111
C          2.32831        18.42189        -0.27953
C          3.59381        20.60553        -0.32128
C          2.36435        21.30428        -0.57897
C          3.61333        23.45123        -0.73136
C          2.36820        22.72240        -0.73662
C          3.65575        24.84645        -0.96762
C          2.39340        25.53963        -1.27771
C          3.67633        27.77387        -1.09273
C          2.39214        27.06413        -1.32583
C          3.65271        29.15345        -0.99925
C          2.37333        29.94334        -1.18203
C          3.65934        31.99576        -0.39639
C          2.41876        31.32150        -0.54157
C          3.65926        33.38918        -0.05134
C          2.43221        34.09194         0.12081
C          3.65512        36.18683         0.51127
C          2.44784        35.50332         0.35946
C          3.67422        37.59497         0.86037
C          2.40388        38.23222         1.17624
C          6.27291         3.42796         0.00930
C          5.04906         4.09888         0.02556
C          6.24680         6.30621         0.03233
C          5.00323         5.55024        -0.06154
C          6.22974         7.71217         0.13335
C          5.00061         8.43470        -0.35778
C          6.10048        10.58576         0.51297
C          4.91303         9.88589         0.04985
C          6.04697        11.96777         0.66137
C          4.88301        12.72723         0.06910
C          6.00131        14.92155         0.87699
C          4.72926        14.13765         0.60814
C          5.96641        16.35096         0.56917
C          4.78035        17.01492         0.24925
C          6.02768        19.17866        -0.03845
C          4.75147        18.44597         0.07566
C          6.01582        20.65078         0.30229
C          4.79319        21.34466        -0.24136
C          6.07764        23.46108        -0.59325
C          4.83292        22.74319        -0.49501
C          6.11411        24.83626        -0.82674
C          4.88302        25.57429        -0.96772
C          6.15824        27.72842        -0.95328
C          4.90153        27.00730        -1.05591
C          6.15815        29.14358        -0.86372
C          4.92332        29.93464        -1.18302
C          6.12823        31.98053        -0.36514
C          4.90687        31.31928        -0.58507
C          6.12292        33.39383        -0.04994
C          4.89145        34.09456         0.06889
C          6.12609        36.20186         0.42605
C          4.89928        35.49057         0.35912
C          6.13032        37.62645         0.71249
C          4.87330        38.27261         0.95820
C          8.81193         3.47230         0.01564
C          7.52966         4.18359        -0.30044
C          8.61271         6.28257         0.62565
C          7.46844         5.60689         0.19461
C          8.59480         7.69151         0.77188
C          7.39615         8.41308         0.49712
C          8.54766        10.53361         0.91180
C          7.35258         9.85591         0.68055
C          8.54993        11.97576         1.19707
C          7.21448        12.73143         1.11522
C          8.50361        14.84957         0.92912
C          7.29241        14.19579         0.91363
C          8.54218        16.32884         0.89301
C          7.24661        17.06900         0.67345
C          8.55809        19.20349         0.36141
C          7.31035        18.45298         0.14549
C          8.53246        20.58598         0.18315
C          7.32834        21.31115        -0.00404
C          8.64889        23.44944        -0.48380
C          7.34057        22.68178        -0.51285
C          8.65608        24.91049        -0.55164
C          7.42497        25.54799        -1.15874
C          8.62305        27.73710        -0.82256
C          7.39615        27.03362        -0.90623
C          8.60355        29.15271        -0.78780
C          7.37291        29.85450        -0.73142
C          8.62245        31.96028        -0.33947
C          7.37513        31.27839        -0.50975
C          8.59111        33.34977         0.16995
C          7.32977        34.11356         0.07944
C          8.62098        36.27926         0.05370
C          7.34135        35.50503         0.25856
C          8.59724        37.68909         0.59272
C          7.33814        38.31809         0.81736
C         11.18193         3.44535         0.55253
C          9.90731         4.10504         0.53847
C         11.05247         6.24465         1.33006
C          9.74573         5.46326         1.20496
C         11.03568         7.71678         1.18865
C          9.84106         8.40412         1.01930
C         11.00477        10.59137         0.94276
C          9.81841         9.85323         0.95679
C         11.00282        12.02595         0.83930
C          9.78977        12.73792         0.99299
C         11.00820        14.86537         0.88978
C          9.77496        14.14729         0.94164
C         11.01298        16.31930         0.74117
C          9.82518        17.00788         0.61376
C         11.08843        19.18999         0.46068
C          9.82973        18.43495         0.11471
C         11.09158        20.57801         0.44608
C          9.80739        21.31696         0.38484
C         11.10916        23.49629         0.06913
C          9.82330        22.78517         0.15063
C         11.07656        24.88338        -0.05896
C          9.85078        25.60236        -0.36073
C         11.09860        27.73544        -0.63381
C          9.89682        27.04123        -0.62980
C         11.16475        29.17718        -0.95223
C          9.83984        29.92817        -0.94127
C         11.14830        32.12376        -0.72051
C          9.84161        31.35109        -0.59053
C         11.13274        33.39384         0.06601
C          9.87930        34.06852         0.36705
C         11.08600        36.22441         0.47775
C          9.88766        35.54097         0.41368
C         11.06886        37.68439         0.54078
C          9.80373        38.35786         0.69994
C         13.62992         3.44611         0.62677
C         12.38911         4.09870         0.80549
C         13.60216         6.33086         0.97096
C         12.37162         5.53538         1.20135
C         13.59482         7.70957         0.97252
C         12.32894         8.42772         1.28169
C         13.50438        10.61078         0.55848
C         12.30922         9.93277         1.10972
C         13.45690        12.03299         0.38131
C         12.22242        12.74270         0.71873
C         13.58083        14.78903         1.00223
C         12.22007        14.14830         0.83623
C         13.55224        16.33929         1.17404
C         12.27409        17.04378         0.73808
C         13.55889        19.18288         1.00429
C         12.28854        18.42695         0.67002
C         13.55595        20.61593         0.51559
C         12.32690        21.33449         0.41993
C         13.55728        23.47926         0.12301
C         12.32003        22.75485         0.22816
C         13.60838        24.86922         0.10058
C         12.33702        25.61780         0.13745
C         13.66333        27.70640        -0.52242
C         12.34764        27.09153        -0.16296
C         13.66415        29.21214        -0.68258
C         12.39301        29.94959        -0.61462
C         13.65139        32.02386        -0.17929
C         12.39985        31.30785        -0.43439
C         13.64805        33.36616         0.19070
C         12.36441        34.01449         0.64335
C         13.55028        36.22985         0.50275
C         12.35638        35.52768         0.50284
C         13.52798        37.68591         0.47759
C         12.26798        38.37093         0.53122
C         16.09899         3.47960         0.52031
C         14.86953         4.12491         0.69703
C         16.13432         6.38003         0.62305
C         14.86493         5.58104         0.95054
C         15.99979         7.82460         0.34823
C         14.78066         8.47788         0.61272
C         15.77538        10.54901        -0.40989
C         14.67210         9.88929         0.31544
C         15.69489        12.08447        -0.72152
C         14.54231        12.75329        -0.12293
C         15.80746        14.95092        -0.41821
C         14.53030        14.22841        -0.05811
C         15.96806        16.31045         0.13678
C         14.76828        17.03741         0.58023
C         16.01068        19.09539         0.04179
C         14.76388        18.39543         0.53567
C         16.02966        20.56786         0.34618
C         14.78341        21.26239         0.34001
C         16.09445        23.44640         0.19226
C         14.79665        22.70123         0.03856
C         16.07103        24.90859         0.28904
C         14.87350        25.59096         0.10747
C         16.14059        27.70728        -0.19994
C         14.91637        27.01761        -0.14101
C         16.15336        29.15051        -0.54238
C         14.91610        29.93627        -0.47982
C         16.16075        32.01707        -0.02538
C         14.91390        31.30937        -0.28493
C         16.09740        33.41685         0.31611
C         14.87680        34.09307         0.39719
C         16.01353        36.29064         0.59286
C         14.83770        35.54594         0.54719
C         15.99041        37.73759         0.43458
C         14.71473        38.39527         0.41016
C         18.55598         3.53172         0.03824
C         17.31072         4.20396         0.27573
C         18.42189         6.30746        -0.41982
C         17.27276         5.60604         0.13782
C         18.37187         7.80558        -0.51419
C         17.14647         8.54668        -0.11155
C         18.21458        10.60277        -1.02262
C         17.09063         9.90258        -0.42896
C         18.08380        11.96222        -1.45727
C         16.95344        12.81876        -1.04994
C         18.20434        15.04200        -1.10218
C         17.01051        14.20571        -0.89517
C         18.34489        16.32327        -0.48043
C         17.18949        16.93978         0.12757
C         18.51002        19.12387         0.29000
C         17.23557        18.37941         0.60312
C         18.51564        20.53675         0.46958
C         17.25735        21.22505         0.47429
C         18.54962        23.40436         0.95098
C         17.25639        22.67801         0.71583
C         18.53604        24.91733         0.88442
C         17.41356        25.55982         0.08072
C         18.59404        27.77325         0.25610
C         17.38156        27.06507         0.11695
C         18.65441        29.16914         0.08191
C         17.45603        29.92030        -0.33190
C         18.64284        31.96476         0.55917
C         17.37854        31.34224        -0.01269
C         18.64542        33.45602         0.36497
C         17.34954        34.11681         0.64837
C         18.59592        36.36372         0.58817
C         17.31019        35.61329         0.80128
C         18.49319        37.86001         0.31056
C         17.15231        38.46841         0.27035
C         19.72349         4.22822        -0.26992
C         20.86615         6.39571        -0.83431
C         19.71247         5.61582        -0.48867
C         20.84818         7.75851        -0.90438
C         19.66188         8.59082        -0.47853
C         20.45724        10.46334        -2.00308
C         19.44707         9.90620        -1.22125
C         20.26409        11.71009        -2.60312
C         19.11195        12.43576        -2.30542
C         20.41687        15.39471        -2.13571
C         19.21352        14.69131        -2.02437
C         20.61078        16.54439        -1.37400
C         19.56432        17.06189        -0.58835
C         20.90355        19.15506        -0.03414
C         19.67142        18.43183        -0.06457
C         20.95239        20.48768         0.31290
C         19.76638        21.25914         0.53402
C         21.01754        23.44424         0.83114
C         19.81039        22.66580         0.77468
C         21.04915        24.80315         1.00979
C         19.83128        25.64490         1.01984
C         21.05917        27.71192         0.00477
C         19.89283        27.16392         0.79561
C         21.08321        29.04013        -0.23530
C         19.90568        29.86604         0.04072
C         21.06456        32.06549        -0.12994
C         19.90455        31.26928         0.08876
C         21.02807        33.43915        -0.10521
C         19.80009        34.16954         0.12024
C         20.82682        36.37187        -0.44180
C         19.78128        35.64030         0.07271
C         20.72985        37.78120        -0.69366
C         19.59620        38.48522        -0.42565
O         18.13119         7.04718        -1.72435
O         15.78030         6.00393         2.00370
O          2.41160        26.28218        -2.55758
O          6.77413        18.70100        -1.21879
O         18.97106        13.67091        -2.95312
O          9.13635        33.43422         1.55116
O         13.69244        28.28976        -1.85620
O         17.68382        22.98790         2.07888
O         18.88156        37.33350         1.63870
O         10.55552        29.60419        -2.21270
O          7.78711        12.31987         2.39797
O         12.28566        26.63696         1.22683
O         12.47940         9.32505         2.44057
O         17.00871        29.52168        -1.67716
O          9.60480        22.27726         1.51388
O          8.19795        22.81996        -1.74448
O         11.79358         5.80320         2.53367
O          2.93319        10.08629        -2.16679
O          7.83112        16.97794         2.02272
O         14.62941        14.89941        -1.33333
O          5.11715        14.43206         1.96912
O         18.89872        25.45296         2.17900
O         15.64720        22.99319        -1.13754
O         17.32153        34.74701         1.99535
O         15.36091        11.07223        -1.71463
O          2.27275        30.22025        -2.62662
H          3.19128        30.43897        -2.93210
O          5.85202        20.65318         1.76717
H          6.01214        21.56384         2.09283
O          9.29679         5.16858         2.55957
H         10.10775         5.11787         3.11871
O          1.88478        14.06298         1.63408
H          1.91939        14.98115         1.97799
O         13.60645        16.59090         2.61293
H         14.29842        15.99031         2.97729
O          5.23570        12.94340        -1.34715
H          4.98211        12.13410        -1.84500
O         16.07241        18.97648        -1.40402
H         15.34188        19.50243        -1.79130
O          2.50379         7.66765        -2.00582
H          2.56396         8.45948        -2.61228
O         20.06650        27.74160         2.12244
H         19.46651        27.24659         2.72639
O          9.87952        18.29762        -1.36792
H          8.95555        18.27416        -1.70445
O          8.69803        36.42371        -1.41772
H          9.44185        37.03372        -1.61329
O          5.00106        30.18590        -2.66586
H          5.22483        29.32811        -3.09011
O          5.09920         8.42784        -1.80480
H          4.38223         9.04086        -2.14787
O          3.54875         8.04469         1.49708
H          2.73721         7.60032         1.82258
O         17.10949        18.39049         2.05109
H         17.97194        18.13398         2.43799
O         14.13815        14.22511         2.23475
H         13.39612        13.99082         2.83222
O         11.25364        32.46941        -2.15777
H         11.17158        31.61853        -2.65061
O         19.87128         8.94192         0.92514
H         20.71029         9.44379         0.99117
O          0.92484        36.57238        -1.13986
H          0.90842        35.71515        -1.61665
O         17.79178        25.20208        -1.30142
H         17.05216        25.45597        -1.89492
O         18.57545        31.74056         2.01456
H         18.11393        32.50892         2.41708
O         12.30924        33.77085         2.10199
H         13.05054        34.26837         2.50932
O          7.52385         4.28541        -1.78439
H          6.78335         4.87945        -2.03702
O          7.57875        25.38729        -2.61056
H          7.74088        24.42318        -2.76109
O         13.63580        19.29862         2.45386
H         13.64154        18.37443         2.81383
H          1.40098         2.23839         0.45540
H         -0.76847         3.45601         0.58882
H         -0.85252         5.91492         0.37058
H         -0.80044         7.91561         0.54953
H         -0.80827        10.33794         0.17406
H         -0.85669        12.10990        -1.17690
H         -0.86666        14.55547        -1.31274
H         -0.99124        16.47916        -1.00995
H         -0.99363        18.90601        -1.05029
H         -1.03800        20.77661        -0.76995
H         -1.04600        23.19462        -0.94880
H         -1.03837        25.09637        -0.97275
H         -1.03803        27.50314        -0.94734
H         -1.00053        29.35022        -0.39967
H         -0.96848        31.73882        -0.02360
H         -0.89999        33.49628         0.77304
H         -0.94111        35.91954         1.04083
H          0.27987        38.11015         1.22522
H          3.85332         2.29062         0.25926
H          2.43058        39.24239         1.61294
H          6.29488         2.32895         0.07144
H          4.87494        39.33826         1.23373
H          8.92338         2.45422        -0.39161
H          7.32490        39.38154         1.10245
H         11.21897         2.39955         0.20817
H          9.81403        39.42862         0.95589
H         13.62809         2.37393         0.37902
H         12.27063        39.47015         0.57884
H         16.12165         2.38312         0.43698
H         14.69094        39.49364         0.35553
H         18.59175         2.43904         0.15106
H         17.08077        39.54967         0.07737
H         20.67111         3.67828        -0.36702
H         21.80638         5.86058        -1.03926
H         21.79205         8.27978        -1.12424
H         21.38923         9.91465        -2.19102
H         21.01393        12.13289        -3.28314
H         21.17707        15.06186        -2.85367
H         21.55083        17.10135        -1.48030
H         21.84716        18.63253        -0.24464
H         21.93379        20.97791         0.37359
H         21.98111        22.91727         0.76784
H         22.02574        25.30527         1.07418
H         21.92421        27.07593        -0.23261
H         21.96308        29.50804        -0.70112
H         22.01929        31.56562        -0.34868
H         21.95963        33.99528        -0.27303
H         21.73660        35.86393        -0.79008
H         21.56810        38.26993        -1.21019
H         19.48321        39.52400        -0.76866
