         576
 CSIRO Nanostructure Databank - Neutral Graphene Oxide Data Set
C          5.85206        19.03375        -0.07031
C          5.90165        20.41544         0.14616
C          4.69148        21.17636         0.34725
C          5.97732        23.19934         0.82014
C          4.72530        22.50106         0.67427
C          6.03854        24.56013         1.14106
C          8.22866        14.68206        -0.33849
C          8.22324        16.08925        -0.34523
C          7.02346        16.85415        -0.28823
C          8.30615        18.94110        -0.08189
C          7.04058        18.25681        -0.17197
C          8.38162        20.34611         0.07356
C          7.16116        21.10238         0.21256
C          8.44828        23.15569         0.68007
C          7.19083        22.48362         0.54713
C          8.49817        24.44345         1.21713
C          7.28293        25.21413         1.33751
C          8.56894        27.34053         1.58289
C          7.35923        26.62263         1.49486
C          8.59997        28.74013         1.49599
C         10.73690        10.56618         0.69974
C         10.31968        11.55759        -0.15404
C          9.28815        12.53564         0.00730
C         10.69016        14.58829        -0.60997
C          9.41998        13.89825        -0.39176
C         10.69461        16.02077        -0.46686
C          9.49044        16.76748        -0.30505
C         10.73789        18.84676         0.16791
C          9.50977        18.18593        -0.11827
C         10.85072        20.28401         0.19811
C          9.65589        21.00893         0.10496
C         10.87684        23.24724        -0.05788
C          9.57502        22.50362        -0.12466
C         10.91981        24.61966        -0.24084
C          9.72590        25.06051         1.80687
C         11.05187        27.31980         1.23138
C          9.85902        26.60395         1.90554
C         11.13506        28.78485         1.64728
C          9.80129        29.50372         1.51107
C         11.04485        31.64773         1.51848
C          9.81256        30.89253         1.51068
C         11.09314        33.01533         1.73882
C         13.29417         6.25044         0.70751
C         13.23992         7.69824         0.62004
C         12.07371         8.40039         0.57228
C         13.29871        10.50931        -0.00476
C         12.10822         9.90704         0.76068
C         13.32178        11.82976        -0.51643
C         12.11505        12.56083        -0.84104
C         13.30411        14.65416        -0.42508
C         11.96981        13.92579        -0.67119
C         13.22603        16.13175        -0.83960
C         11.93759        16.70813        -0.24476
C         13.70869        19.05806         0.03901
C         11.84651        17.97064         0.31231
C         13.47944        20.41359        -0.18344
C         12.17908        21.02512         0.27628
C         13.35406        23.27191        -0.26773
C         12.14447        22.53438         0.16602
C         13.32598        24.66323        -0.13649
C         12.10969        25.35989         0.08749
C         13.34500        27.51816         0.31230
C         12.10194        26.75111         0.51500
C         13.41249        28.86245         0.56775
C         12.25297        29.57197         1.00794
C         13.53119        31.67512         1.12333
C         12.27269        30.94163         1.19721
C         13.57225        33.02043         1.56218
C         12.35090        33.73029         1.83858
C         13.65805        35.78934         2.56010
C         12.37802        35.07562         2.19987
C         13.66982        37.27635         2.27889
C         15.76325         6.18842         0.70121
C         14.46457         5.55633         0.79017
C         15.81493         7.66897         0.62161
C         14.53132         8.44109         0.62227
C         15.76513        10.44152        -0.25931
C         14.52977         9.82766         0.09014
C         15.75429        11.82247        -0.59191
C         14.54201        12.49795        -0.71168
C         15.76084        14.67281        -1.15337
C         14.44462        13.93014        -1.16745
C         15.74662        16.11988        -1.06407
C         14.60690        16.82687        -0.69207
C         15.77857        19.02235        -1.11322
C         14.69679        18.27925        -0.58824
C         15.72672        20.42992        -1.16323
C         14.56133        21.13925        -0.75260
C         15.69995        23.31901        -0.98110
C         14.54445        22.59563        -0.70666
C         15.71128        24.77929        -1.02077
C         14.49071        25.48044        -0.51719
C         15.75092        27.64904        -0.60113
C         14.68441        26.82651         0.13043
C         15.78520        28.99692        -0.37380
C         14.76724        29.52470         0.61775
C         16.00880        31.68531         0.67425
C         14.70037        31.01076         0.72381
C         16.12167        33.01678         1.32920
C         14.89280        33.62342         2.00660
C         16.19340        35.80733         2.22981
C         14.86055        35.14656         1.83021
C         16.13293        37.31040         2.03710
C         14.82738        37.95205         2.08958
C         18.21413         6.13016         0.44807
C         16.93676         5.48257         0.69915
C         18.18965         7.52085        -0.00417
C         17.03796         8.27993         0.04795
C         18.17824        10.29154        -0.79735
C         17.01559         9.68289        -0.33512
C         18.25083        11.76138        -0.94997
C         17.00039        12.57042        -0.83071
C         18.11612        14.64573        -1.99590
C         16.93503        13.97640        -1.30707
C         18.30136        16.09796        -1.61084
C         17.06991        16.80526        -1.13865
C         18.22566        19.01172        -1.82764
C         17.04741        18.29938        -1.27234
C         18.26577        20.45452        -1.57151
C         16.95884        21.16722        -1.54356
C         18.24561        23.32660        -1.00541
C         16.95678        22.64470        -1.33165
C         18.27158        24.84743        -0.85529
C         16.96338        25.55215        -1.12172
C         18.14254        27.68540        -1.48786
C         16.91378        26.92495        -1.11784
C         18.14814        29.19011        -1.31956
C         16.79578        29.89614        -1.08454
C         18.36062        31.89053        -0.15298
C         16.95453        31.38943        -0.49368
C         18.42758        33.24999         0.40370
C         17.29055        33.86906         1.00183
C         18.53942        35.93077         1.35988
C         17.33887        35.19536         1.44773
C         18.57591        37.34495         1.71044
C         17.29544        38.01328         1.88640
C         20.71794         5.97416         0.02104
C         19.39273         5.43460         0.51100
C         20.72014         7.46655        -0.17639
C         19.43075         8.07386        -0.57911
C         20.73544        10.22143        -1.13418
C         19.40888         9.51138        -1.03675
C         20.72545        11.67940        -1.46021
C         19.41181        12.36755        -1.67156
C         20.73594        14.54439        -2.18333
C         19.41093        13.81582        -2.03533
C         20.72736        16.05649        -2.23916
C         19.46675        16.76478        -1.86948
C         20.75531        19.01345        -1.67367
C         19.51612        18.25961        -1.96341
C         20.72869        20.37198        -1.45574
C         19.46876        21.10388        -1.53139
C         20.72650        23.28693        -1.77583
C         19.49935        22.56675        -1.26124
C         20.69106        24.78958        -1.51886
C         19.51304        25.48041        -1.42664
C         20.73955        27.69723        -1.38403
C         19.46815        26.95757        -1.57500
C         20.72269        29.05622        -1.11426
C         19.47493        29.86497        -1.09076
C         20.82857        31.82667        -0.25414
C         19.51900        31.22148        -0.47760
C         20.92095        33.33057        -0.09660
C         19.64481        33.95584         0.42173
C         20.99490        35.92390         1.12689
C         19.71275        35.26593         0.94317
C         21.03389        37.34464         1.46507
C         19.77881        38.01851         1.73041
C         23.04209         6.26505         0.98154
C         21.88823         5.49413         0.82056
C         23.07878         7.63051         0.49578
C         21.88831         8.21638        -0.07021
C         23.09316        10.35214        -0.38444
C         21.92969         9.61744        -0.47442
C         23.11502        11.81462        -0.68183
C         21.88863        12.54886        -1.12682
C         23.22435        14.59466        -1.65941
C         21.98617        13.89284        -1.73062
C         23.28774        16.04265        -1.83799
C         22.03117        16.80732        -2.07549
C         23.27144        18.79579        -1.00756
C         22.04120        18.27475        -1.75499
C         23.28099        20.33484        -0.83732
C         21.95542        21.11800        -1.00093
C         22.89992        23.43220        -0.67425
C         21.93492        22.59837        -1.18147
C         23.10614        24.79232        -1.08092
C         21.95630        25.51188        -1.44401
C         23.24475        27.57103        -1.30454
C         21.96384        26.93744        -1.37815
C         23.28455        29.04914        -1.22314
C         21.99518        29.79446        -1.02820
C         23.33928        31.82538        -0.22148
C         21.99751        31.13547        -0.40838
C         23.28072        32.89664         0.86704
C         22.05362        33.71875         0.86289
C         23.45994        35.75704         1.27430
C         22.14781        35.16388         1.14383
C         23.49740        37.25643         1.03068
C         22.25560        37.96901         1.51890
C         25.37552         6.47999         1.80031
C         24.19235         5.71885         1.61930
C         25.37729         7.83503         1.30483
C         24.26212         8.40041         0.66611
C         25.48083        10.51717         0.19682
C         24.30781         9.78172         0.16547
C         25.66123        11.79786        -0.53234
C         24.39692        12.46466        -1.05166
C         25.78066        14.44838        -1.69891
C         24.41330        13.89500        -1.35550
C         25.76844        15.96810        -1.93719
C         24.49230        16.73545        -1.79779
C         25.71758        18.90842        -1.65116
C         24.53915        18.17682        -1.58553
C         25.76354        20.34369        -1.45274
C         24.59754        21.03196        -0.98485
C         25.83357        23.21533        -1.03370
C         24.76641        22.36047        -0.59927
C         25.71960        24.62247        -1.17129
C         24.46291        25.44198        -0.79271
C         25.65259        27.68299        -1.72590
C         24.43932        26.86939        -1.30797
C         25.71292        28.97704        -0.93654
C         24.53970        29.62550        -0.69177
C         25.78984        31.60002         0.25359
C         24.47323        30.85696         0.16509
C         25.84039        32.83186         0.84798
C         24.58692        33.46349         1.45624
C         25.89048        35.67427         1.65567
C         24.59770        34.99845         1.39876
C         25.93444        37.16414         1.61930
C         24.77737        37.89488         1.47163
C         27.73478         6.74285         2.76585
C         26.48685         5.95540         2.49570
C         27.85395         7.87092         1.67474
C         26.56347         8.70250         1.63033
C         27.97295        10.64106         0.77401
C         26.70946         9.86295         0.67706
C         27.89044        12.12715         0.61299
C         26.81357        12.69904        -0.23635
C         27.98133        14.91111        -0.38647
C         26.85166        13.98957        -0.69751
C         28.22861        16.13005        -1.17371
C         27.05514        16.72661        -1.86714
C         28.29380        18.95045        -1.80655
C         27.00145        18.22387        -1.93344
C         28.31949        20.40174        -1.41477
C         26.98007        21.08587        -1.54416
C         28.30119        23.18641        -1.48294
C         27.00952        22.48618        -1.42819
C         28.28257        24.71225        -1.47858
C         26.92665        25.33477        -1.61410
C         28.21693        27.56565        -1.63927
C         26.94465        26.88230        -1.78461
C         28.15468        29.08098        -1.53586
C         26.97612        29.65631        -0.76511
C         28.20286        31.75329        -0.29930
C         26.99158        30.94865        -0.25784
C         28.29762        32.96485         0.31570
C         27.19529        33.39721         1.26207
C         28.42400        35.68743         1.31327
C         27.18280        34.90532         1.55449
C         28.42348        37.12650         1.65421
C         27.18842        37.80766         1.79719
C         30.28369         6.52821         2.40599
C         28.96527         5.88087         2.75750
C         30.21170         8.04157         2.54051
C         29.06937         8.72385         1.89816
C         30.30065        10.84350         1.66963
C         29.10350        10.07523         1.56603
C         30.39209        12.18265         1.17599
C         29.13528        12.92217         0.88096
C         30.48170        14.97817         0.19642
C         29.18941        14.34608         0.41167
C         30.57702        16.26348        -0.35178
C         29.41087        16.86803        -0.97837
C         30.73727        18.94775        -1.34982
C         29.54023        18.22871        -1.43870
C         30.79293        20.38015        -1.63724
C         29.51568        21.00504        -2.19705
C         30.76220        23.24915        -1.84868
C         29.47365        22.56041        -2.23722
C         30.71749        24.70116        -2.16016
C         29.46620        25.47471        -1.95378
C         30.67113        27.71369        -2.19541
C         29.43096        26.88753        -1.94950
C         30.63362        29.15145        -1.82893
C         29.47059        29.67118        -1.01660
C         30.49603        32.07802        -1.40388
C         29.33591        31.18996        -1.08294
C         30.43869        33.53356        -0.96105
C         29.63923        33.67056         0.37153
C         30.71017        36.00426         0.51186
C         29.52789        35.13016         0.75003
C         30.92593        37.08397         1.55608
C         29.62505        37.81571         1.74841
C         32.65009         6.69254         3.27065
C         31.51559         5.97937         3.09816
C         32.76034         8.12600         2.99334
C         31.46762         8.82159         2.74829
C         32.83850        10.84908         2.05388
C         31.53419        10.13307         2.05042
C         32.81308        12.29429         1.70732
C         31.61133        12.83566         1.03441
C         33.01222        14.85515         0.27675
C         31.69417        14.16236         0.39094
C         33.01254        16.37014         0.35304
C         31.83098        16.97972        -0.36426
C         33.19755        18.99169        -0.83744
C         31.92348        18.28584        -0.84246
C         33.28880        20.36065        -1.50389
C         31.96166        21.10289        -1.53744
C         33.18630        23.31796        -1.43420
C         31.95247        22.56256        -1.65592
C         33.20258        24.69415        -1.59722
C         32.05015        25.43656        -2.16162
C         33.29529        27.62851        -1.78083
C         32.06216        26.94678        -2.23002
C         33.45650        29.03924        -1.95515
C         31.63107        30.05021        -2.17113
C         33.00919        32.00295        -1.38684
C         31.77311        31.38962        -1.66008
C         32.98754        33.44230        -1.05383
C         31.83178        34.12362        -0.80947
C         33.17817        36.17019        -0.08235
C         31.86643        35.51847        -0.30974
C         33.16420        37.49986         0.52983
C         32.10775        37.96324         1.22718
C         33.92433         8.82851         3.05091
C         35.28905        10.94812         2.52593
C         33.96455        10.34313         2.95010
C         35.37844        12.22573         2.00392
C         34.13750        12.97465         1.64030
C         35.54959        14.88782         0.70406
C         34.26050        14.15125         0.73221
C         35.53758        16.32522         0.32845
C         34.36017        16.98449         0.00834
C         35.70194        19.00812        -0.75390
C         34.36563        18.35161        -0.45875
C         35.64745        20.52187        -0.61440
C         34.45715        21.18107        -0.97621
C         35.56423        23.32593        -0.64991
C         34.40632        22.60192        -1.00797
C         35.48307        24.82633        -0.53199
C         34.51264        25.44376        -1.53851
C         35.46102        27.64850        -0.63773
C         34.37596        26.92567        -1.24114
C         35.22386        29.09453        -0.23771
C         34.31245        29.83943        -1.19624
C         35.36532        31.97126        -0.55485
C         34.21875        31.25847        -1.13166
C         35.42585        33.34150        -0.56791
C         34.31593        34.18255        -1.11861
C         34.31310        35.53680        -0.45112
C         36.59989        12.96619         1.93313
C         37.83835        15.06175         1.57908
C         36.68239        14.29482         1.45988
C         37.94258        16.38964         1.04963
C         36.80350        17.03937         0.38489
C         38.10791        19.12279         0.07819
C         36.85725        18.35731        -0.02059
C         38.04285        20.58807         0.14581
C         36.80895        21.25489        -0.24648
C         37.91884        23.45879         0.14004
C         36.75307        22.67708        -0.25543
C         37.89909        24.84250         0.18360
C         36.83002        25.55529        -0.59995
C         37.68784        27.72441         0.43762
C         36.61967        27.00527        -0.22745
C         37.62610        29.14218         0.50467
C         36.49955        29.84810         0.04814
C         36.48897        31.23350        -0.04403
C         39.11903        17.08242         1.26637
C         40.31311        19.28710         1.39853
C         39.32941        18.42851         0.75212
C         40.27806        20.65288         1.24789
C         39.15638        21.29639         0.58650
C         40.27502        23.57237         1.20074
C         39.16436        22.76074         0.46652
C         39.97816        24.95785         1.50309
C         38.92541        25.60637         0.85696
C         38.78196        27.02661         0.96325
C         41.25999        21.45520         1.97092
C         41.23633        22.80384         2.01027
O         14.69188        25.37953        -1.94884
O         28.11081        12.75108         1.91704
O         17.96275        12.47467         0.30689
O         26.58649        35.17054         2.86424
O         32.50952        10.02212         0.91206
O         20.73343        15.26790        -3.47057
O         21.02720        10.69868        -2.49735
O         32.48422        14.21628        -0.90299
O         31.40248        27.43992        -3.41376
O         18.69226        27.30068        -2.78826
O         10.49704        24.38901         2.48481
O         22.30718        12.55570         0.29864
O         27.71431         9.79500        -0.40673
O         12.30161        21.84044         1.47786
O         15.31850         8.31579         1.86263
O         18.72787        18.66323        -3.15302
O         40.33269        23.28283        -0.23635
O         33.26496        13.19987         2.80593
O         29.35168        22.97518        -3.58007
O         28.18205        15.17227         1.04850
O         27.72343        18.71449        -3.11921
O         30.86064        36.44023        -0.86451
O         18.82308        29.85540        -2.43044
O         28.57346        23.94267        -0.25351
O         11.08220        11.77184        -1.33103
O         26.85322        25.96535        -2.93612
O         35.16455        13.95576        -0.39103
O         23.82294        22.93657         0.25847
O         19.22571        12.76170        -3.05281
O         22.71182        29.79024        -2.34035
O         26.55237        16.22699        -3.16112
O         12.94876        18.43838         1.01816
O         22.25783        17.82455        -3.12650
O         30.51774         8.66062         3.85213
O         25.25174        11.65994        -1.92689
O         31.48646        24.92091        -3.39785
O         22.27007        32.73049         1.92749
O         19.03083        22.76281         0.11504
O         17.38319        17.64914         0.02048
O         19.28748         8.41941        -2.01121
O         15.14583        26.62611         1.46640
O         16.59514        31.78895         2.01748
O         22.46654        20.69713         0.31806
O         16.86588        22.08412        -2.69771
O         21.30052        33.86020        -1.35326
O         39.21670        18.58397        -0.69982
O         32.70579        29.62627        -2.97816
O         29.47736        31.75030        -2.42069
O         18.45737        25.14457         0.57106
H         18.92919        24.37258         0.96927
O         24.17280        30.36363         1.50481
H         24.36108        31.08639         2.14945
O         15.30538        29.18578         1.93713
H         15.30180        28.16048         1.98542
O         26.12947        13.80224        -2.94950
H         26.48604        14.50462        -3.54853
O         12.47729        10.10731         2.16698
H         13.32352         9.63873         2.33889
O         29.74262        34.28667        -1.96352
H         29.29703        33.64088        -2.56111
O         25.43537        28.12107        -3.10478
H         25.57832        27.33446        -3.68078
O         14.07318        13.87482        -2.58578
H         14.87557        13.65767        -3.10851
O         32.82596        16.65251         1.78192
H         32.67047        17.61515         1.88389
O         16.47011        35.58878         3.63222
H         16.23002        34.65788         3.85046
O         34.60010        34.40010        -2.53967
H         33.86151        34.92871        -2.90993
O         16.48154        32.29841        -1.51283
H         17.03049        32.17664        -2.31583
O         12.95082        16.24690        -2.25929
H         13.34000        15.46214        -2.72198
O         33.59595        20.09351        -2.90510
H         34.47836        19.64482        -2.93328
O         30.41661        32.99318         1.39714
H         29.85376        32.95165         2.20339
O         23.17416        18.23173         0.33087
H         22.78190        18.92709         0.91082
O         27.97590         7.17845         0.40185
H         27.99007         7.87890        -0.29741
O         29.60599        29.25456         0.35916
H         30.33372        29.75783         0.78040
O         28.64332        20.46072         0.00387
H         28.54220        21.38787         0.30941
O         34.95690        25.09808         0.79814
H         34.15453        24.54938         0.92657
O         27.61548         7.39077         4.08694
H         28.50649         7.71343         4.35206
O         27.98461        29.51834        -2.90420
H         27.09458        29.21375        -3.21328
O         20.87181         5.39001        -1.33853
H         20.32586         5.93073        -1.95072
O         17.66797        14.74632        -3.38847
H         18.46871        14.87905        -3.94638
O         10.03172        26.75244         3.35203
H         10.58748        25.98578         3.63523
O         29.47011        20.53799        -3.54277
H         29.49290        21.36300        -4.10792
O         14.67215        35.33993         0.41232
H         14.65762        36.30371         0.23036
O         23.66668        32.51150        -1.44229
H         22.85041        33.04969        -1.68351
O         14.99322        33.28920         3.42142
H         15.40055        32.38702         3.45794
O         34.47478        29.04056         1.02783
H         35.03372        28.56241         1.67718
O         24.53986        25.57765         0.66969
H         24.39087        24.67613         1.04237
O         24.62128        33.06290         2.85647
H         23.68501        33.10042         3.17194
O          9.84517        25.30658        -0.76242
H         10.07685        26.25565        -0.84196
O         35.05417        25.34775        -2.87592
H         34.32511        25.48258        -3.51794
O         13.75851        35.64275         3.99914
H         13.96258        34.69897         4.19351
O         27.53618        32.76237         2.53440
H         26.86789        33.09638         3.18022
O         26.30980         9.33874         2.90466
H         26.54209         8.68939         3.62112
O         23.48259        37.40232        -0.43895
H         22.71032        36.89733        -0.77635
O         37.32223        25.54436        -1.96376
H         38.26830        25.79845        -1.94894
O         31.23409        36.38667         2.80619
H         31.25844        37.05124         3.52589
O         13.62623        14.59093         0.97504
H         12.97532        15.12865         1.47298
O          9.09699        22.63477        -1.50742
H          9.01123        23.59650        -1.69267
O         33.69480        10.85776         4.28912
H         33.61051        11.83839         4.20674
O         35.96465        18.77333        -2.18572
H         36.08618        17.80815        -2.31587
O         20.67589        23.10387        -3.21467
H         21.36339        23.66521        -3.62946
O         30.47416         6.23625         0.98643
H         29.62047         6.45827         0.52697
O         11.50191        28.86785         3.05940
H         10.92352        28.22616         3.54530
O         16.22723        30.03443        -2.40748
H         16.96812        30.05244        -3.05444
H          4.87530        18.52887        -0.11556
H          3.72750        20.65419         0.25728
H          3.79060        23.05487         0.84492
H          5.10817        25.13732         1.24811
H          7.26859        14.15310        -0.24122
H          6.05649        16.32974        -0.31983
H          6.42238        27.19638         1.41690
H          7.64323        29.27727         1.39018
H         10.13332        10.38905         1.60320
H          8.37406        12.26102         0.55643
H          8.85910        31.44407         1.52404
H         10.16557        33.57092         1.94277
H         12.33744         5.70899         0.74623
H         11.10801         7.87280         0.57891
H         11.42584        35.57904         2.43235
H         12.71451        37.82259         2.30775
H         14.43797         4.46057         0.88579
H         14.79858        39.04394         1.94295
H         16.92348         4.38859         0.81842
H         17.27293        39.11427         1.85059
H         19.36864         4.37195         0.79870
H         19.80178        39.09596         1.95319
H         21.87395         4.45941         1.19506
H         22.32263        39.04098         1.75908
H         24.15653         4.68074         1.98160
H         24.82669        38.99492         1.49651
H         26.39221         4.95999         2.95650
H         27.20422        38.90067         1.92867
H         28.84931         4.83039         2.43684
H         29.62351        38.88893         1.99574
H         33.53968         6.19332         3.68613
H         31.50880         4.90915         3.35448
H         34.06018        38.12713         0.40298
H         32.14182        38.97044         1.67178
H         34.86647         8.30150         3.26906
H         36.21416        10.42450         2.81336
H         36.32747        33.84523        -0.18632
H         35.29009        36.02189        -0.29937
H         37.50498        12.51469         2.36775
H         38.71670        14.64216         2.09210
H         38.50747        29.69888         0.85664
H         37.38163        31.80062         0.26138
H         39.89912        16.63691         1.90209
H         41.05775        18.82588         2.06469
H         40.60147        25.50093         2.22872
H         39.57309        27.59234         1.47734
H         42.01015        20.90523         2.55869
H         41.94457        23.35765         2.64420
