         490
 CSIRO Nanostructure Databank - Neutral Graphene Oxide Data Set
C         37.63291        50.48582        -0.09157
C         36.48081        51.19226        -0.40916
C         37.81128        52.81565        -1.60993
C         36.56250        52.35561        -1.18324
C         40.12058        49.03520         0.63994
C         40.08740        50.12954        -0.27771
C         38.91171        50.92602        -0.52598
C         40.31342        52.69848        -1.77751
C         38.98964        52.13935        -1.27738
C         40.43028        54.19979        -1.63035
C         42.43178        48.37301        -0.07451
C         41.24322        48.28111         0.85791
C         42.62645        49.81135        -0.57748
C         41.37177        50.60878        -0.80259
C         42.74121        52.62392        -1.15243
C         41.51106        52.03944        -1.12764
C         42.87765        53.92806        -1.91875
C         41.63536        54.77623        -1.68430
C         44.98325        45.69005         0.60164
C         43.75497        46.36569         0.57894
C         44.87641        48.52439         0.64101
C         43.70786        47.76900         0.46537
C         44.90432        49.92665         0.42548
C         43.84075        50.58406        -0.21463
C         44.95354        52.81072        -0.05801
C         43.88970        51.99873        -0.48507
C         44.95497        54.20712        -0.50262
C         44.11859        54.68649        -1.54354
C         45.49744        56.69608        -1.77887
C         44.39631        55.91869        -2.15225
C         47.48325        44.59960        -0.36049
C         47.44958        45.82310         0.34942
C         46.17954        46.40377         0.69175
C         47.37948        48.58525         1.14538
C         46.07999        47.81708         1.22670
C         47.37977        49.93633         1.04156
C         46.09131        50.68599         0.88613
C         47.46055        52.82711         0.72208
C         46.10127        52.18835         0.69964
C         47.55736        54.20977         0.86254
C         45.84014        55.16994         0.02500
C         47.43350        57.08597        -0.17818
C         46.24741        56.34066        -0.63851
C         47.54524        58.42345        -0.50382
C         49.90845        44.64918        -0.38687
C         48.69003        44.04202        -0.73915
C         49.90321        45.89147         0.29598
C         48.67252        46.50076         0.63061
C         49.92005        48.54829         1.67615
C         48.59296        47.72767         1.51199
C         49.88641        49.88230         0.87300
C         48.66248        50.71782         1.28219
C         49.90729        52.82191         0.59323
C         48.68413        52.11669         0.68771
C         49.92992        54.24295         0.51971
C         48.71000        54.95121         0.60833
C         49.91468        57.18540         0.48385
C         48.58599        56.43432         0.50730
C         49.95227        58.55400        -0.05265
C         48.75831        59.15553        -0.40552
C         52.30515        41.74549        -0.72026
C         51.17423        42.47064        -0.85799
C         52.33606        44.41919         0.08904
C         51.20277        43.98791        -0.83081
C         52.37312        45.90608         0.30008
C         51.17358        46.57984         0.62062
C         52.45779        48.55678         1.67738
C         51.18508        47.81607         1.29110
C         52.38630        49.98966         1.11063
C         51.20809        50.63783         0.94754
C         52.44079        52.85242         0.75239
C         51.20133        52.05689         0.36984
C         52.40155        54.30161         0.78352
C         51.18050        54.99783         0.57124
C         52.39233        57.14114         0.60979
C         51.17707        56.41089         0.54125
C         52.41210        58.56976         0.32042
C         51.23365        59.23498        -0.08738
C         52.48520        61.30011        -0.43969
C         51.30414        60.60204        -0.47824
C         54.89200        40.22344        -0.84698
C         54.84192        41.65898        -0.69246
C         53.61404        42.36749        -0.54276
C         54.86674        44.42430        -0.13826
C         53.64567        43.75593        -0.28298
C         54.87471        45.92990        -0.15126
C         53.68502        46.49348         0.61127
C         55.06113        48.56911         1.38004
C         53.74092        47.81174         1.30235
C         54.95091        50.06255         1.14098
C         53.67032        50.68431         0.67953
C         54.87226        52.87344         1.16969
C         53.64080        52.17904         0.89482
C         54.78198        54.30399         1.49919
C         53.57078        55.04945         1.09514
C         54.79309        57.25865         1.27881
C         53.57753        56.45582         0.98463
C         54.85107        58.65852         0.78545
C         53.65088        59.29522         0.35963
C         54.91537        61.40875         0.07826
C         53.69163        60.67736        -0.00955
C         55.01493        62.76929        -0.43392
C         57.34105        40.15119        -0.67389
C         56.06512        39.51344        -0.75127
C         57.33562        41.62855        -0.99099
C         56.07354        42.34978        -0.54211
C         57.30574        44.34630         0.43051
C         56.08653        43.71848        -0.22274
C         57.34352        45.87062         0.41385
C         56.17714        46.57484         0.25996
C         57.43381        48.71357         0.76281
C         56.12695        48.06803         0.37637
C         57.41062        50.06812         1.08059
C         56.12647        50.77481         1.12242
C         57.36711        52.93340         1.39909
C         56.10989        52.22202         1.21974
C         57.35405        54.32345         1.50583
C         56.09375        55.04901         1.70871
C         57.36581        57.23947         1.31612
C         56.09529        56.54479         1.60706
C         57.30377        58.71361         1.28675
C         56.04600        59.38723         0.88950
C         57.34136        61.50815         0.54523
C         56.07991        60.77503         0.56347
C         57.26324        63.02670         0.56566
C         56.11747        63.52502        -0.26829
C         59.77558        37.32737        -0.42572
C         58.59891        38.02239        -0.49914
C         59.82751        40.16215        -0.47322
C         58.55644        39.45638        -0.56174
C         59.86548        41.57177        -0.43276
C         58.62395        42.35243        -0.62359
C         59.83529        44.30043         0.52362
C         58.59858        43.74945        -0.09585
C         59.82846        45.77036         0.92937
C         58.58664        46.54713         0.72372
C         59.86892        48.65495         1.10890
C         58.64152        47.95417         0.82646
C         59.86457        50.03389         1.25060
C         58.63587        50.78048         1.24824
C         59.88145        52.88770         1.37237
C         58.62981        52.19684         1.38628
C         59.90168        54.36279         1.47515
C         58.60227        55.11377         1.57469
C         59.81929        57.24998         0.94959
C         58.57497        56.57009         1.25253
C         59.83564        58.66114         0.77420
C         58.61390        59.44923         1.04260
C         59.79853        61.56283         0.14959
C         58.54012        60.85275         0.59291
C         59.83501        62.99000         0.69996
C         58.57983        63.73342         0.31647
C         59.87108        65.78992         0.04858
C         58.64507        65.09262         0.08955
C         62.31146        35.82996        -0.45600
C         62.27800        37.28119        -0.31953
C         61.04467        37.99329        -0.37046
C         62.29213        40.12201        -0.27619
C         61.04855        39.42307        -0.35370
C         62.29608        41.53347        -0.23661
C         61.09036        42.25898        -0.20748
C         62.28499        44.35718         0.42853
C         61.11346        43.67306         0.16287
C         62.30664        45.76216         0.79123
C         61.12768        46.46303         0.96811
C         62.40067        48.63401         1.07112
C         61.13813        47.89202         1.44672
C         62.38969        50.03049         1.10042
C         61.15301        50.74022         1.61183
C         62.31993        52.91077         1.00742
C         61.10638        52.20994         1.27767
C         62.29338        54.34011         0.84845
C         61.10150        55.08654         1.02679
C         62.26231        57.16227         0.48687
C         61.04673        56.48788         0.81085
C         62.26879        58.62583         0.09343
C         61.01631        59.37927         0.45667
C         62.29545        61.50980         0.32300
C         61.06804        60.78808         0.40577
C         62.30653        62.95535         0.23811
C         61.11513        63.69838         0.32520
C         62.36617        65.80656         0.02538
C         61.11713        65.11580         0.13871
C         62.45067        67.21591        -0.27936
C         64.66011        35.75839         0.25002
C         63.42139        35.09357        -0.22135
C         64.79749        37.20076        -0.20758
C         63.50047        37.98397        -0.15911
C         64.77127        40.12239        -0.02672
C         63.52958        39.39186        -0.15634
C         64.81385        41.50572        -0.07533
C         63.57861        42.31015        -0.35444
C         64.84578        44.29096         0.71849
C         63.54959        43.59043         0.44883
C         64.79624        45.77025         0.78824
C         63.60077        46.46103         0.82923
C         64.82022        48.64193         0.65421
C         63.60720        47.91922         0.85357
C         64.80439        50.06975         0.60861
C         63.58099        50.76508         0.84529
C         64.75049        52.90863         0.48892
C         63.54885        52.20340         0.81387
C         64.70551        54.31215         0.32817
C         63.50422        55.02685         0.53327
C         64.72877        57.17138         0.33633
C         63.45923        56.45577         0.42505
C         64.74266        58.57712         0.32184
C         63.50283        59.34579         0.65563
C         64.73242        61.48386         0.00416
C         63.54212        60.81260         0.27411
C         64.77852        62.92406        -0.05207
C         63.55809        63.64488         0.10175
C         64.84586        65.74571         0.07158
C         63.59146        65.06999         0.09143
C         64.84330        67.21929         0.39097
C         63.62443        67.88934        -0.19385
C         67.09197        32.92143        -0.05716
C         65.96571        33.53897         0.35192
C         67.28027        35.70127         0.72013
C         65.92307        34.99868         0.57291
C         67.27932        37.17415         0.31840
C         65.99014        37.89700         0.42449
C         67.30814        40.04369         0.08198
C         66.01195        39.39675         0.34656
C         67.28349        41.47431        -0.42187
C         66.05187        42.22481         0.01185
C         67.34341        44.28117         0.33889
C         66.09965        43.58360         0.32363
C         67.38107        45.72226         0.67163
C         66.07518        46.50182         0.84457
C         67.27885        48.62251         0.29499
C         66.07712        47.94864         0.57313
C         67.27271        50.07489         0.17959
C         66.02770        50.79541         0.38072
C         67.22826        52.95886         0.10209
C         65.99728        52.20359         0.31247
C         67.20959        54.32968        -0.05375
C         65.90099        55.04152        -0.23134
C         67.17670        57.17693         0.66054
C         65.92564        56.45050         0.28562
C         67.21867        58.49048        -0.13669
C         65.92927        59.23512        -0.22303
C         67.26269        61.41754        -0.37121
C         65.95523        60.72819        -0.35883
C         67.22740        62.87984        -0.73620
C         65.99981        63.61613        -0.24370
C         67.31545        65.74291        -0.26660
C         66.04261        65.03328        -0.14484
C         67.33686        67.18351        -0.15309
C         66.13927        67.91628         0.07331
C         67.34831        70.04270         0.08770
C         66.18090        69.33815         0.15091
C         69.44455        31.55819        -1.15064
C         69.54021        32.89963        -0.73378
C         68.36375        33.62691        -0.22963
C         69.76970        35.67634         0.19798
C         68.45245        34.94397         0.13133
C         69.67010        37.09966        -0.39185
C         68.44787        37.85669         0.09395
C         69.72802        39.99474        -0.50869
C         68.45485        39.30762        -0.04107
C         69.75759        41.47597        -0.17390
C         68.57280        42.19122        -0.13373
C         69.80643        44.32603         0.10134
C         68.55644        43.60812         0.09696
C         69.80931        45.75378         0.08424
C         68.57290        46.48565         0.26793
C         69.72617        48.56257        -0.32697
C         68.50702        47.86968         0.13503
C         69.70579        50.08572        -0.40531
C         68.45629        50.79363        -0.05064
C         69.69159        52.93607        -0.11115
C         68.48756        52.22933        -0.01895
C         69.72974        54.37297        -0.05309
C         68.45949        55.15468        -0.30780
C         69.71756        57.15807         0.80586
C         68.44973        56.42663         0.48121
C         69.70782        58.63699         0.41632
C         68.49713        59.26135        -0.12159
C         69.71702        61.44222        -0.19033
C         68.45016        60.73486        -0.25738
C         69.70892        62.87760        -0.39489
C         68.53066        63.59022        -0.47398
C         69.77507        65.74329        -0.48964
C         68.52208        65.03819        -0.42721
C         69.77981        67.17490        -0.48001
C         68.57136        67.88126        -0.26394
C         69.78377        70.05700        -0.65473
C         68.67407        69.34679         0.09574
C         69.71867        71.42200        -0.96012
C         71.79736        31.50304        -1.70498
C         70.55444        30.86529        -1.62900
C         71.91600        32.83021        -1.30991
C         70.80438        33.55260        -0.82034
C         72.10387        35.66544        -0.53541
C         70.93215        34.94751        -0.44174
C         72.14366        37.06714        -0.26741
C         70.98794        37.82674        -0.18579
C         72.14838        39.98175         0.15757
C         70.99319        39.25806        -0.12066
C         72.17706        41.38783         0.17539
C         71.01282        42.14997         0.01734
C         72.24288        44.32636         0.01399
C         71.02810        43.60173         0.05446
C         72.24710        45.70822        -0.04279
C         71.04163        46.44800        -0.03669
C         72.18763        48.63706        -0.32011
C         71.03463        47.89048        -0.19861
C         72.16318        50.06108        -0.38784
C         70.99835        50.77779        -0.32845
C         72.10343        52.91437         0.48198
C         71.02747        52.28198        -0.37364
C         72.05732        54.24604         0.70967
C         70.91213        55.02460         0.28116
C         72.16631        57.27150         0.69547
C         70.96218        56.52904         0.15077
C         72.10126        58.60821         0.85617
C         70.87787        59.35268         0.51377
C         72.06805        61.58375         0.49395
C         70.88546        60.78312         0.21968
C         72.13233        62.89804         0.18628
C         71.04524        63.53730        -0.64254
C         72.19574        65.76220        -0.70100
C         71.00712        65.04495        -0.57462
C         72.19535        67.16245        -0.79259
C         71.00680        67.88649        -0.70664
C         72.03154        69.99657        -1.58454
C         70.95761        69.33030        -0.96089
C         71.95086        71.35350        -1.88677
C         70.79159        72.06839        -1.57749
O         59.70939        44.67344         1.91524
O         42.08639        49.90431        -1.94641
O         58.05381        59.30759         2.39522
O         59.39410        54.83444         2.78480
O         66.89111        46.08240         2.00656
O         48.32686        47.10008         2.76721
O         53.86258        46.56256         2.06903
O         65.82234        38.67680         1.63362
O         46.41102        54.90187         1.26697
O         64.12479        43.55915         1.78493
O         45.76178        51.59381         2.00575
O         65.69874        59.86594        -1.54675
O         49.08540        57.10364         1.70301
O         58.77226        43.54677        -1.52432
O         57.17633        43.93597         1.77142
O         69.54718        49.25186        -1.61051
O         67.99997        58.47884        -1.34421
O         65.00213        35.44569         1.63635
O         55.30149        54.58375         2.84350
O         55.29607        57.16762         2.65675
O         59.71971        61.69991        -1.30298
H         59.99761        60.85146        -1.70882
O         65.16322        37.12126        -1.62498
H         64.39436        36.75783        -2.11374
O         62.33388        58.66894        -1.35899
H         63.19085        58.27645        -1.63555
O         54.62328        46.29839        -1.56378
H         55.04878        45.62442        -2.13620
O         40.40598        52.39757        -3.21285
H         40.53544        51.42752        -3.29578
O         61.25388        50.67478         3.07327
H         61.25129        49.71480         3.31596
O         59.80994        62.86939         2.16204
H         59.94689        63.76544         2.53634
O         45.79636        47.67771         2.64991
H         46.67773        47.37163         3.03838
O         63.66611        42.75745        -1.75046
H         63.89709        41.98142        -2.30352
O         42.06585        47.52094        -1.19832
H         41.77313        48.13099        -1.92042
O         65.67711        55.11836        -1.69424
H         66.57004        55.20379        -2.11017
O         53.70328        50.49003        -0.80000
H         54.46878        49.88171        -1.00525
O         51.51329        44.47224        -2.16395
H         50.79469        44.18810        -2.76608
O         69.48116        36.97988        -1.82847
H         69.45045        37.89778        -2.19015
O         49.72786        49.54471        -0.52525
H         50.08338        50.30450        -1.05246
O         56.94710        63.34106         1.96726
H         57.65628        62.92490         2.50980
O         69.91221        57.10467         2.25507
H         69.06800        57.41731         2.65469
O         67.51660        35.75010         2.16762
H         66.65853        36.01294         2.57857
O         67.07086        57.62705         2.06131
H         66.73023        56.87186         2.58713
O         64.70620        67.32555         1.86602
H         63.85650        66.89727         2.10540
O         71.37714        63.22294        -2.04079
H         71.30125        62.25075        -2.14913
O         55.58183        48.38758         2.70922
H         54.81693        48.31074         3.32149
O         71.38764        52.61362        -1.76047
H         71.33115        53.58936        -1.85150
O         57.26189        41.65670        -2.45825
H         57.65684        42.51609        -2.73489
O         67.17626        41.35927        -1.88569
H         67.97457        40.85829        -2.18893
O         51.99600        43.91028         1.41324
H         52.68090        44.22020         2.04534
O         70.13351        35.80876         1.59972
H         69.30022        35.87713         2.12772
O         51.26158        51.84564        -1.08905
H         52.13644        51.41589        -1.27500
O         61.15441        47.82354         2.92167
H         60.47651        47.17001         3.20206
O         52.57835        48.70973         3.11240
H         51.66427        48.90990         3.45730
O         67.08519        62.89145        -2.20797
H         66.45561        62.17781        -2.45104
O         50.00047        48.87990         3.07260
H         49.38337        48.21059         3.49975
O         48.71298        51.00207         2.70023
H         47.81860        51.30819         2.97061
O         68.43629        55.58233        -1.75827
H         68.21189        56.54974        -1.77718
O         55.75684        48.61710        -0.94072
H         55.37422        47.87287        -1.47775
O         69.10149        69.36500         1.51556
H         68.39793        68.91880         2.03437
O         69.65653        39.90858        -1.99534
H         70.47042        40.33100        -2.34720
O         70.93813        56.80768        -1.27526
H         70.18475        56.30874        -1.67593
O         63.34586        59.31244         2.10839
H         64.14561        59.70565         2.51525
O         42.93508        53.60977        -3.33090
H         42.07183        53.18072        -3.56165
H         37.54579        49.55609         0.48656
H         35.50296        50.82692        -0.06618
H         37.86482        53.72570        -2.22400
H         35.65159        52.90642        -1.45406
H         39.22030        48.81813         1.23359
H         39.52316        54.80483        -1.48450
H         41.21133        47.45460         1.58242
H         41.74337        55.86838        -1.59816
H         44.98241        44.60193         0.44636
H         42.82505        45.79249         0.46048
H         45.75083        57.59659        -2.35529
H         43.76338        56.24585        -2.98851
H         46.54968        44.09159        -0.63544
H         46.67693        58.93999        -0.93759
H         48.68514        43.10494        -1.31226
H         48.73566        60.20548        -0.72590
H         52.24401        40.64945        -0.78713
H         50.22510        41.94454        -1.03695
H         52.48118        62.36002        -0.72373
H         50.39448        61.12428        -0.80117
H         53.94979        39.66395        -0.92997
H         54.17761        63.17603        -1.01784
H         56.00427        38.41602        -0.73167
H         56.15887        64.53465        -0.70145
H         59.73472        36.23061        -0.39103
H         57.65885        37.45560        -0.52979
H         59.84605        66.87747        -0.09938
H         57.72090        65.66993        -0.06046
H         61.39115        35.31094        -0.75748
H         61.55050        67.74460        -0.62411
H         63.38226        33.99739        -0.29196
H         63.65857        68.95379        -0.46480
H         67.06024        31.83638        -0.22003
H         65.04383        32.96203         0.51024
H         67.32056        71.13268         0.22507
H         65.23976        69.88853         0.29215
H         68.48350        31.02921        -1.11166
H         68.81953        72.00474        -0.71836
H         72.67571        30.95934        -2.07927
H         70.45020        29.81867        -1.94666
H         72.89804        33.31741        -1.37865
H         73.04068        35.18638        -0.85481
H         73.12918        37.55553        -0.24761
H         73.07964        39.44572         0.38808
H         73.13671        41.88079         0.37863
H         73.20286        43.79392        -0.01382
H         73.21090        46.22958        -0.11146
H         73.17078        48.14819        -0.30137
H         73.12592        50.58952        -0.43024
H         72.97801        52.32337         0.79018
H         72.87864        54.74978         1.23889
H         73.11071        56.74145         0.88668
H         72.99081        59.15919         1.19374
H         72.91080        61.11256         1.01897
H         73.03442        63.47655         0.43396
H         73.15041        65.22469        -0.78544
H         73.15225        67.68023        -0.94339
H         72.94371        69.44442        -1.84922
H         72.79683        71.85794        -2.37373
H         70.72169        73.13859        -1.81603
