         272
 CSIRO Nanostructure Databank - Neutral Graphene Oxide Data Set
C        -11.28832         0.58564        -0.30179
C        -10.07419         1.38706        -0.24491
C         -8.81169         0.61408         0.10787
C         -7.43319         1.38667        -0.09885
C         -6.49165         0.64155        -1.04609
C         -5.16676         1.40385        -1.23522
C         -3.87440         0.66675        -1.20378
C         -2.57059         1.40155        -1.18783
C         -1.39567         0.72791        -1.31137
C         -0.09389         1.34840        -1.84046
C          1.10503         0.92667        -0.91888
C          2.40227         1.43446        -1.55329
C          3.72693         0.67882        -1.31003
C          4.99518         1.56570        -1.35576
C          6.25491         0.89356        -0.89240
C          7.54722         1.32732        -1.50962
C          8.81255         0.46104        -1.32859
C         10.07856         1.27272        -1.15201
C         11.28207         0.45950        -1.01001
C        -10.08197         2.75023        -0.25665
C         -8.82244         3.46913         0.16798
C         -7.64475         2.82454        -0.55063
C         -6.46626         3.61284        -1.05283
C         -5.14920         2.90105        -1.14478
C         -3.96848         3.57596        -1.13439
C         -2.60878         2.89456        -0.97123
C         -1.46741         3.61236        -1.68732
C         -0.19297         2.88457        -2.00932
C          1.12430         3.69920        -2.17430
C          2.39836         2.84412        -2.04070
C          3.71769         3.58800        -2.16960
C          5.04439         2.86208        -2.17645
C          6.40872         3.68597        -2.24260
C          7.62717         2.76927        -1.92940
C          8.90611         3.49424        -1.54217
C         10.10246         2.61687        -1.28451
C         -8.76520         4.97113         0.17100
C         -7.62682         5.67549        -0.09075
C         -6.53095         5.15772        -1.02725
C         -5.17171         5.84840        -0.77485
C         -3.92817         5.10072        -1.33661
C         -2.61609         5.65679        -0.70055
C         -1.40335         5.06729        -1.33466
C         -0.03149         5.68076        -1.05340
C          1.17964         4.92717        -1.30157
C          2.51168         5.46776        -0.85562
C          3.71496         5.04113        -1.74120
C          5.02345         5.68544        -1.36695
C          6.38998         5.00619        -1.43797
C          7.36931         5.07258        -0.27705
C          8.55070         4.38496        -0.33970
C         -7.46533         6.93652         0.61860
C         -6.24528         7.49223         0.88405
C         -5.04783         7.03351         0.13386
C         -3.69205         7.59776         0.53127
C         -2.54074         6.67103         0.19188
C         -1.22901         7.09225         0.76352
C          0.01849         6.65616         0.07857
C          1.24343         7.50263         0.14577
C          2.47713         6.96611        -0.49662
C          3.77676         7.65174        -0.16522
C          5.03583         7.02025        -0.64006
C          6.33895         7.46549         0.03301
C          7.47547         6.57450        -0.46746
C         -6.05751         8.54735         1.86912
C         -4.84181         8.83360         2.38478
C         -3.62409         8.02187         2.00823
C         -2.31652         8.73626         2.25255
C         -1.15714         8.29995         1.63950
C          0.11576         8.88082         1.90409
C          1.32817         8.48866         1.26068
C          2.56369         8.91011         1.70836
C          3.88444         8.62083         1.03567
C          4.93913         8.04434         1.99158
C          6.08937         7.52588         1.52912
C        -11.31124        -0.76980        -0.09594
C        -10.09913        -1.55542        -0.06478
C         -8.89328        -0.80166        -0.49153
C         -7.67597        -1.57174        -0.83503
C         -6.39227        -0.83343        -0.54027
C         -5.10029        -1.56262        -0.80031
C         -3.87471        -0.69925        -0.55454
C         -2.61586        -1.47072        -0.87587
C         -1.34951        -0.75772        -1.15883
C         -0.07292        -1.40105        -0.66531
C          1.16937        -0.57201        -0.67742
C          2.36849        -1.00377         0.12016
C          3.67036        -0.26700        -0.10035
C          4.93495        -0.96166         0.35183
C          6.26173        -0.34040        -0.00784
C          7.53488        -1.07924         0.33390
C          8.76738        -0.67658        -0.34078
C          9.94240        -1.47430        -0.29133
C         11.20206        -0.86445        -0.72690
C        -10.01984        -2.91879         0.13166
C         -8.78648        -3.66613         0.02813
C         -7.49425        -2.91936        -0.18392
C         -6.37632        -3.70549        -0.91315
C         -5.07126        -2.92498        -0.74611
C         -3.79935        -3.65676        -0.47514
C         -2.63008        -2.77671        -0.16035
C         -1.42421        -3.26556         0.55243
C         -0.14823        -2.41483         0.50864
C          1.12330        -3.24552         0.57149
C          2.38608        -2.42985         0.61509
C          3.69733        -3.10228         0.65006
C          4.88294        -2.43713         0.54914
C          6.15921        -3.22342         0.70820
C          7.45648        -2.49733         0.85116
C          8.76892        -3.26346         1.05265
C          9.91022        -2.76957         0.21013
C         -8.77604        -5.04700         0.07456
C         -7.58077        -5.83393        -0.04731
C         -6.27072        -5.22196        -0.53739
C         -5.18632        -5.61901         0.48202
C         -3.82955        -5.01042         0.15798
C         -2.66097        -5.50837         0.98318
C         -1.41101        -4.68714         1.06974
C         -0.06902        -5.37688         1.29928
C          1.12644        -4.59159         0.75233
C          2.45589        -5.31186         0.88639
C          3.61445        -4.54047         0.22193
C          4.89501        -5.33681         0.30816
C          6.25081        -4.67327         0.20396
C          7.41281        -5.44155         0.89261
C          8.57037        -4.76325         1.11366
C         -7.53086        -7.18609         0.21369
C         -6.25204        -7.88038         0.31055
C         -5.10255        -7.13459         0.48673
C         -3.86086        -7.79139         0.94225
C         -2.63273        -6.99610         1.27551
C         -1.25840        -7.69652         1.48416
C         -0.12626        -6.84482         0.85461
C          1.13638        -7.55169         0.53890
C          2.42258        -6.78770         0.29475
C          3.70402        -7.51566         0.76030
C          4.80446        -6.67845         0.15232
C          6.59783        -7.80828         0.66831
C          7.37932        -6.87207         1.28244
C         -6.15278        -9.32900         0.34085
C         -4.95314        -9.97094         0.47740
C         -3.72271        -9.24912         0.71585
C         -2.47861        -9.83584         0.69975
C         -1.23224        -9.11960         0.90600
C         -0.02881        -9.72830         0.68711
C          1.26630        -9.01022         0.98050
C          2.54841        -9.67834         0.50840
C          3.73621        -9.00507         0.46940
C          5.00930        -9.72100         0.64336
C          6.24338        -9.20035         0.92845
O         -3.94439         5.33801        -2.69150
O          5.88697        -7.32403        -0.45149
O          7.56147         1.71584        -2.92814
O          4.43326         8.11473        -1.38531
O         -2.33192        -4.78349         2.20170
O          7.01760        -0.02631         1.21420
O          2.19852        -1.29114         1.52674
O         -2.48181        -2.53910         1.27419
O          2.29260         1.71536        -2.96528
O          4.33852         3.11737        -3.40850
O          0.90275        -1.55109        -1.72756
O         -0.94482        -7.76962         2.85495
O         -3.57077        -7.32479         2.33809
O         -2.08095        -1.49197        -2.21489
O          4.24301         0.03499         1.18944
O         -6.94066        -2.44566         1.12543
O         -6.49337        -0.99756         0.95057
O         -4.54326         0.86166        -2.47598
O          6.65720        -2.82015         2.03550
O          0.11629         0.77455        -3.07985
O         -0.38601         6.00179         1.32157
O          1.61026         7.87780        -1.22355
O         -7.50498         3.08474        -1.95395
O         -0.81268         5.96877        -2.28626
O         -5.23116         7.19690        -1.31398
O          7.20139         6.25127        -1.91535
O          4.36817         5.90165        -2.67525
O         -1.16295         3.23983        -3.04481
O          0.14652        -7.21807        -0.52106
O         -8.56474        -1.19678        -1.88361
O         -3.51395        -4.85774        -1.25885
O          5.59446         1.95796        -0.09006
O         -3.47339         8.79474        -0.24246
H         -3.83631         8.61954        -1.14263
O         -5.56256        -5.16910         1.79470
H         -4.94662        -5.58494         2.44151
O          0.95770         1.56641         0.36167
H          1.02604         0.90303         1.08371
O          6.63149         4.06094        -3.60419
H          5.75059         4.16850        -4.03728
O          3.87792        -0.23678        -2.41702
H          3.41860         0.14776        -3.20123
O          2.84313         4.78802         0.41004
H          2.03521         4.72798         0.96666
O          8.98414        -0.27523        -2.58067
H          8.75998         0.35494        -3.30791
O         -0.23132        -1.54081         1.65758
H         -0.36534        -2.09144         2.45813
O         -3.84596        -0.33930         0.85035
H         -3.81574        -1.15440         1.40081
O         -6.73053        -3.63683        -2.31718
H         -5.90719        -3.60022        -2.84800
O         -8.92842         0.37875         1.53813
H         -8.08703        -0.06114         1.81743
O         -6.71870         1.46574         1.14988
H         -7.19099         2.12937         1.71374
O          1.43045        -8.93112         2.43670
H          0.55318        -8.59302         2.81041
O          9.22442        -2.89298         2.39869
H          8.41600        -2.88506         2.96336
O          4.36294         9.90254         0.59426
H          5.22977         9.74661         0.13604
O         -3.63064         6.78867         2.78257
H         -3.56131         7.01918         3.73231
O          3.34936        -4.34184        -1.19601
H          3.26124        -5.23551        -1.61296
O          0.15103        -5.42809         2.73045
H         -0.38466        -6.21081         3.08468
O          6.63649        -4.52975        -1.19065
H          6.54153        -5.41621        -1.60351
O          3.87655        -7.47449         2.19288
H          3.12546        -7.98490         2.58908
O          2.76163        -5.31659         2.28435
H          1.91790        -5.42509         2.79254
O         -8.67106         3.17150         1.61190
H         -9.17745         2.34685         1.81810
O          6.65983         8.80741        -0.41058
H          6.48581         8.83839        -1.37799
O         -6.90232         5.56978        -2.35336
H         -6.08298         5.53692        -2.90415
O          9.31373         4.44093        -2.54287
H          8.52436         4.96167        -2.82562
O          2.55905        -6.76643        -1.14988
H          1.64674        -6.74851        -1.52712
O         -7.08903         0.61335        -2.33962
H         -6.37456         0.60966        -3.01440
O         -2.27876         3.08751         0.44565
H         -2.87012         2.51835         0.98437
O          1.16740         4.22380        -3.51908
H          0.23875         4.21158        -3.86281
O         -5.92221        -5.93116        -1.74277
H         -6.51800        -5.59922        -2.45140
H         12.11221        -1.47793        -0.66542
H         12.25874         0.93751        -1.17536
H         11.06878         3.14392        -1.24532
H          9.40695         4.80825         0.21341
H          8.48009         7.03202        -0.32892
H          6.86338         7.16549         2.22417
H          4.77098         8.12638         3.07667
H          2.60279         9.61179         2.55653
H          0.17276         9.67217         2.66763
H         -2.28555         9.60652         2.92766
H         -4.73463         9.62451         3.14304
H         -6.94958         9.09037         2.21729
H         -8.34407         7.30677         1.17148
H         -9.53021         5.45703         0.80095
H        -11.00987         3.30995        -0.45002
H        -12.24151         1.12753        -0.40166
H        -12.27908        -1.28730        -0.01173
H        -10.93791        -3.48813         0.34709
H         -9.72363        -5.57815         0.26046
H         -8.44740        -7.74143         0.46658
H         -7.07053        -9.91643         0.19183
H         -4.90891       -11.06866         0.41857
H         -2.40656       -10.91726         0.49906
H          0.00340       -10.76632         0.31849
H          2.54683       -10.77983         0.45656
H          4.89660       -10.81142         0.77103
H          7.02313        -9.88507         1.29953
H          8.01926        -7.16237         2.12936
H          9.42336        -5.30899         1.54920
H         10.83095        -3.37342         0.18764
