         640
 CSIRO Nanostructure Databank - Neutral Graphene Oxide Data Set
C         22.96028        27.38893         0.36112
C         22.95455        28.75901         0.26463
C         22.97019        31.67613        -0.12775
C         22.98591        33.04196        -0.30644
C         22.98453        35.95467        -0.42990
C         22.97698        37.31825        -0.53160
C         22.96755        40.20345        -1.00439
C         22.93313        41.56571        -0.97990
C         22.89323        44.55502        -0.21162
C         22.94032        45.79559         0.28535
C         25.39722        24.55080         0.48139
C         24.20359        25.24541         0.46715
C         25.41920        27.36984         0.35132
C         24.18814        26.66112         0.39283
C         25.41209        28.80302         0.29152
C         24.16875        29.50868         0.21648
C         25.40681        31.65046         0.07024
C         24.17105        30.93536         0.06386
C         25.43157        33.06747        -0.13348
C         24.19689        33.78512        -0.31590
C         25.43509        35.93443        -0.53776
C         24.20637        35.21165        -0.45029
C         25.44320        37.33458        -0.58413
C         24.19544        38.06469        -0.64055
C         25.47120        40.21029        -1.00656
C         24.17963        39.45976        -0.79664
C         25.41657        41.63060        -0.47524
C         24.10495        42.34737        -0.53765
C         25.41400        44.51929        -0.43804
C         24.09918        43.84751        -0.78493
C         25.43602        45.85801        -0.09111
C         24.23456        46.51650         0.55056
C         25.33373        48.68931         0.10382
C         24.18801        47.99222         0.26378
C         27.93238        23.08742         0.38123
C         27.90530        24.50931         0.39995
C         26.64425        25.22586         0.42199
C         27.89325        27.35830         0.32272
C         26.65120        26.64589         0.36472
C         27.88525        28.78139         0.31137
C         26.64177        29.51142         0.30386
C         27.85190        31.67414         0.30694
C         26.63620        30.94420         0.24636
C         27.87285        33.05643         0.03167
C         26.67280        33.75066        -0.19618
C         27.94777        35.94135        -0.27201
C         26.72703        35.17115        -0.72262
C         27.91769        37.36443        -0.23395
C         26.69668        38.07468        -0.48753
C         27.90481        40.21800        -0.32612
C         26.70760        39.47403        -0.55708
C         27.92159        41.66846        -0.43697
C         26.68658        42.39770        -0.56390
C         27.91178        44.55290        -0.84492
C         26.64592        43.78497        -0.60186
C         27.89888        45.97097        -0.33577
C         26.67078        46.62745        -0.09117
C         27.85527        48.78703         0.00038
C         26.63184        48.03668         0.05255
C         27.88196        50.20603         0.04316
C         30.36480        23.07284         0.24147
C         29.11884        22.39552         0.30374
C         30.37792        24.49624         0.28806
C         29.13289        25.21261         0.36801
C         30.35723        27.37104         0.36587
C         29.13723        26.65801         0.35520
C         30.35502        28.78468         0.36476
C         29.11736        29.47192         0.33876
C         30.41365        31.65638         0.61532
C         29.09834        30.92160         0.56219
C         30.35445        33.18174         0.57273
C         29.19197        33.74568        -0.26729
C         30.35849        35.95575         0.14724
C         29.14310        35.25111        -0.07340
C         30.35716        37.37912         0.21233
C         29.11406        38.10322         0.03502
C         30.24018        40.30753         0.59384
C         29.08658        39.51711         0.01766
C         30.37134        41.70235        -0.00150
C         29.14922        42.38373        -0.34699
C         30.35675        44.54086        -0.42164
C         29.16789        43.80994        -0.48698
C         30.36461        45.96636        -0.35220
C         29.11476        46.67998        -0.27358
C         30.33521        48.82651        -0.15886
C         29.10355        48.09879        -0.10875
C         30.31334        50.23537        -0.15483
C         29.07543        50.90206        -0.06179
C         32.80796        20.24107         0.05532
C         31.62766        20.93694         0.19744
C         32.83082        23.05866        -0.03705
C         31.60661        22.35302         0.13479
C         32.83173        24.49302         0.02059
C         31.62207        25.18842         0.22876
C         32.86579        27.38452         0.05780
C         31.66157        26.64958         0.59642
C         32.83779        28.77312        -0.04221
C         31.60542        29.52447         0.21805
C         32.74757        31.65060        -0.45166
C         31.61196        30.90493         0.20400
C         32.82183        33.11878        -0.08870
C         31.64673        33.82861         0.14819
C         32.83728        35.95983         0.09044
C         31.61908        35.24857         0.16710
C         32.82998        37.40204         0.23021
C         31.58401        38.07484         0.35561
C         32.84480        40.28680         0.46965
C         31.56166        39.53474         0.61849
C         32.83692        41.73902         0.19998
C         31.58404        42.39013        -0.01412
C         32.84564        44.57637        -0.06731
C         31.65355        43.79862        -0.56842
C         32.81929        45.95308        -0.01135
C         31.59034        46.68687        -0.22190
C         32.82681        48.83478        -0.20076
C         31.59032        48.10738        -0.20955
C         32.85129        50.22189        -0.17604
C         31.58337        51.01768        -0.40163
C         32.84081        52.98049         0.44061
C         31.65071        52.35343         0.28977
C         35.27121        18.76609        -0.38017
C         35.23114        20.14902        -0.43513
C         34.02847        20.90934        -0.19374
C         35.28335        23.05072        -0.42927
C         34.05574        22.33865        -0.23193
C         35.28601        24.48895        -0.37980
C         34.07480        25.20873        -0.14102
C         35.28985        27.33809        -0.40717
C         34.07685        26.64284        -0.16428
C         35.28030        28.77405        -0.43759
C         34.05871        29.49787        -0.29822
C         35.26955        31.62714        -0.48391
C         34.06324        30.91823        -0.36256
C         35.30310        33.09931        -0.44452
C         34.04773        33.82849        -0.24617
C         35.27624        35.99962        -0.34619
C         34.03846        35.23511        -0.12758
C         35.31771        37.41910         0.06926
C         34.06483        38.11095         0.23925
C         35.29488        40.23205         0.22945
C         34.10517        39.54345         0.26914
C         35.33241        41.68452        -0.16218
C         34.05266        42.43200         0.13505
C         35.29398        44.56131         0.35018
C         34.07428        43.85621         0.13635
C         35.33597        45.96055         0.36184
C         34.03729        46.73395         0.43561
C         35.36466        48.83121        -0.01835
C         34.11325        48.04677        -0.33624
C         35.34462        50.20822        -0.09311
C         34.09801        50.94354        -0.09905
C         35.35170        53.07433         0.23412
C         34.09956        52.33302         0.13495
C         35.36910        54.48486         0.41658
C         37.71108        18.67571        -0.56881
C         36.49600        18.04986        -0.44066
C         37.76308        20.09810        -0.94619
C         36.43945        20.88018        -0.83866
C         37.74969        22.98339        -0.78183
C         36.51340        22.34039        -0.66060
C         37.74672        24.46081        -1.07162
C         36.50354        25.18962        -0.59397
C         37.76375        27.28797        -0.76273
C         36.51619        26.60119        -0.58928
C         37.74172        28.75451        -0.91258
C         36.49054        29.49644        -0.61058
C         37.76654        31.63523        -0.45662
C         36.48537        30.89574        -0.59636
C         37.79324        33.08614        -0.85648
C         36.50264        33.77719        -0.50720
C         37.83359        35.91267        -0.18764
C         36.56269        35.24679        -0.50837
C         37.80472        37.29325         0.40368
C         36.52523        38.06094         0.19653
C         37.78914        40.22569        -0.09868
C         36.58072        39.52538         0.54028
C         37.80269        41.69070         0.30511
C         36.59620        42.36116         0.31452
C         37.81841        44.53948         0.81176
C         36.51594        43.78598         0.66015
C         37.81733        45.99550         0.58446
C         36.57266        46.68664         0.40898
C         37.82727        48.81584         0.31443
C         36.59246        48.10372         0.21463
C         37.85425        50.23049         0.18256
C         36.62897        50.96350        -0.29101
C         37.81336        53.11126         0.24876
C         36.58557        52.40477         0.13772
C         37.80895        54.53023         0.36589
C         36.55548        55.18911         0.45176
C         40.12241        16.16573         0.90574
C         38.97583        16.72199         0.45962
C         40.21236        18.74653        -0.29674
C         38.99307        17.88054        -0.51247
C         40.28760        20.06864        -1.02268
C         39.01820        20.86880        -0.85775
C         40.28747        22.98651        -0.79152
C         39.00649        22.25767        -0.82574
C         40.28589        24.45640        -0.64862
C         39.02688        25.17040        -0.71185
C         40.29966        27.28281        -0.71495
C         38.98902        26.57385        -0.69811
C         40.34597        28.76660        -0.86550
C         39.04767        29.49921        -0.94894
C         40.33249        31.66519        -0.54742
C         39.06050        30.91547        -0.49189
C         40.29360        33.08195        -0.41297
C         39.06456        33.79680        -0.43807
C         40.29122        35.92135        -0.00407
C         39.04264        35.20312        -0.19889
C         40.29354        37.34374         0.11822
C         39.06815        38.08191         0.14220
C         40.29565        40.20265         0.27653
C         39.07192        39.47415         0.16448
C         40.28904        41.62412         0.47783
C         39.05925        42.36190         0.54739
C         40.28342        44.50130         0.78698
C         39.08392        43.78736         0.69564
C         40.29142        45.94045         0.73362
C         39.04328        46.67247         0.59291
C         40.27664        48.81974         0.62301
C         39.06228        48.10966         0.52322
C         40.28946        50.25058         0.54427
C         39.05470        50.94795         0.31666
C         40.28197        53.09085         0.35007
C         39.06267        52.39012         0.27418
C         40.28593        54.52745         0.33055
C         39.06238        55.25044         0.35218
C         40.30013        57.35061         0.26240
C         39.10421        56.67412         0.33131
C         42.60246        16.10709         0.91701
C         41.41866        16.70230         0.54180
C         42.77674        18.70102        -0.32994
C         41.44692        17.97458        -0.19345
C         42.73358        20.17181        -0.51402
C         41.55605        20.85308        -0.74502
C         42.77902        23.12336        -0.96171
C         41.49628        22.30339        -0.80356
C         42.73981        24.37880        -0.08594
C         41.46876        25.13314        -0.36913
C         42.77301        27.34594        -0.25488
C         41.46608        26.60230        -0.02861
C         42.77183        28.76878        -0.31700
C         41.56098        29.50883        -0.46924
C         42.77904        31.65031        -0.28716
C         41.54610        30.93274        -0.44577
C         42.76214        33.07268        -0.19836
C         41.53139        33.79162        -0.22193
C         42.75934        35.92475         0.04005
C         41.52005        35.21107        -0.05891
C         42.76022        37.34447         0.14084
C         41.52710        38.05927         0.16320
C         42.76350        40.18917         0.39619
C         41.52572        39.48304         0.27921
C         42.74211        41.59815         0.61904
C         41.53440        42.29216         0.68260
C         42.81614        44.47016         0.96526
C         41.51165        43.71323         1.20812
C         42.78382        45.94470         0.78919
C         41.49781        46.66214         0.71634
C         42.74516        48.79665         0.65200
C         41.53392        48.09724         0.66363
C         42.75708        50.25272         1.03798
C         41.49909        50.97114         0.63720
C         42.77196        53.08325         0.44771
C         41.52908        52.37759         0.47752
C         42.77515        54.50566         0.30815
C         41.53226        55.22341         0.29513
C         42.77359        57.33451         0.14427
C         41.53603        56.64493         0.23453
C         43.85136        16.77357         0.77054
C         45.21150        18.80848         0.34149
C         43.96240        18.06291         0.28062
C         45.24791        20.17852        -0.00169
C         44.04690        20.85175        -0.54191
C         45.28194        23.07069        -0.34536
C         44.06870        22.34292        -0.74604
C         45.24477        24.50666        -0.25628
C         44.01349        25.20079        -0.22847
C         45.25056        27.35159        -0.19310
C         44.00606        26.62946        -0.21956
C         45.24692        28.78996        -0.15900
C         44.01273        29.49786        -0.24290
C         45.23872        31.64622        -0.12942
C         44.00747        30.92649        -0.22244
C         45.23097        33.07125        -0.06109
C         43.99899        33.78650        -0.07344
C         45.22746        35.92634         0.06984
C         43.99284        35.20879         0.01790
C         45.22931        37.34752         0.13533
C         43.99732        38.06378         0.19908
C         45.25142        40.19886         0.32765
C         43.99829        39.47916         0.32749
C         45.27700        41.59468         0.46908
C         44.03689        42.32747         0.90839
C         45.28392        44.48852         0.43121
C         43.97608        43.73589         0.31303
C         45.29565        45.88655         0.38855
C         44.00986        46.61275         0.25803
C         45.30640        48.78007         0.51384
C         44.00955        48.11606         0.32072
C         45.27666        50.22044         0.82104
C         44.01919        50.97755         0.65771
C         45.28346        53.09172         0.39860
C         44.02638        52.35948         0.51750
C         45.26310        54.50038         0.20356
C         44.00011        55.22244         0.19908
C         43.96479        56.63824         0.11254
C         47.62507        18.84363         0.68102
C         46.42451        18.16709         0.70426
C         47.68311        20.22513         0.36345
C         46.46552        20.90620         0.05906
C         47.71675        23.03213        -0.02866
C         46.47874        22.33963        -0.13557
C         47.73289        24.47359        -0.33717
C         46.47851        25.23015        -0.25422
C         47.75369        27.34516        -0.06355
C         46.49700        26.63820        -0.19445
C         47.75539        28.81663         0.26248
C         46.46457        29.52259        -0.06429
C         47.72607        31.65997        -0.00789
C         46.47270        30.92704        -0.07174
C         47.70831        33.07910         0.03630
C         46.46581        33.79063         0.02065
C         47.69828        35.92994         0.04503
C         46.46111        35.20862         0.05286
C         47.69725        37.35220         0.03730
C         46.46766        38.06541         0.11134
C         47.71698        40.19917         0.09815
C         46.47933        39.48420         0.16034
C         47.72070        41.62676         0.19216
C         46.49571        42.32163         0.36970
C         47.73982        44.47354         0.39356
C         46.50228        43.76312         0.41791
C         47.74179        45.90859         0.39635
C         46.52129        46.61912         0.38732
C         47.77780        48.78556         0.43437
C         46.50713        48.07717         0.44859
C         47.81656        50.21445         0.50199
C         46.58191        50.97374         0.80452
C         47.74560        53.11869         0.34531
C         46.53391        52.42301         0.50073
C         47.70267        54.50417         0.11711
C         46.49165        55.17804         0.05177
C         50.19517        20.24751         0.40578
C         48.93081        20.94060         0.39176
C         50.15327        23.10372         0.53763
C         48.91633        22.35001         0.25525
C         50.24039        24.53778         0.27685
C         49.04556        25.24171        -0.20576
C         50.22085        27.38774         0.27934
C         48.97432        26.69415        -0.00606
C         50.25148        28.82985         0.14328
C         48.98519        29.50172        -0.33903
C         50.17935        31.69031        -0.04145
C         48.96994        30.98614        -0.06568
C         50.17898        33.10204         0.02106
C         48.93931        33.79954         0.04810
C         50.15908        35.94575        -0.06814
C         48.92964        35.22522         0.03048
C         50.14233        37.34384        -0.18708
C         48.92923        38.06599        -0.08006
C         50.18442        40.21621        -0.13841
C         48.93613        39.49429        -0.05848
C         50.19865        41.62966        -0.00152
C         48.96053        42.34820         0.17813
C         50.26123        44.46280         0.56436
C         48.96176        43.74575         0.32991
C         50.20978        45.93070         0.23558
C         49.00134        46.62497         0.30909
C         50.23290        48.76857         0.16803
C         48.99071        48.06717         0.29049
C         50.23282        50.20191         0.13146
C         49.01338        50.91373         0.33764
C         50.24561        53.03908        -0.09992
C         49.06504        52.40896         0.59586
C         51.39804        20.88839         0.42183
C         52.72176        23.11456         0.48186
C         51.48299        22.33056         0.67973
C         52.68816        24.52445         0.56761
C         51.41784        25.24047         0.52717
C         52.63247        27.42058         0.98065
C         51.39687        26.68245         0.52164
C         52.67371        28.87155         0.53361
C         51.43823        29.52696         0.19318
C         52.69355        31.72500         0.21808
C         51.48318        30.96105        -0.27541
C         52.66845        33.13047         0.22685
C         51.42032        33.83674         0.04544
C         52.65273        35.97289         0.03299
C         51.41233        35.23212        -0.01235
C         52.64803        37.35216        -0.18712
C         51.38981        38.04688        -0.63142
C         52.62574        40.20820        -0.44968
C         51.39689        39.52030        -0.34514
C         52.64558        41.64025        -0.39513
C         51.43590        42.34161        -0.13461
C         52.67066        44.46769        -0.15794
C         51.46706        43.75639        -0.00116
C         52.66489        45.89642        -0.00030
C         51.46297        46.61856         0.11308
C         52.69665        48.76981        -0.05281
C         51.46052        48.06024         0.08112
C         52.67820        50.19968        -0.17833
C         51.44814        50.90514        -0.10988
C         51.37185        52.33527        -0.34105
C         55.12533        23.17272         0.11006
C         53.95085        22.46017         0.23611
C         55.14185        24.58553         0.24259
C         53.91211        25.26661         0.47210
C         55.11017        27.39845         0.64001
C         53.91724        26.69152         0.63775
C         55.09629        28.84947         1.07457
C         53.85948        29.57380         0.60702
C         55.09344        31.71869         0.81170
C         53.90110        31.02139         0.50650
C         55.05717        33.18510         0.96478
C         53.85641        33.88665         0.49302
C         55.13388        36.01006         0.30847
C         53.87999        35.28191         0.33721
C         55.09022        37.36012        -0.16705
C         53.87803        38.06101        -0.30646
C         55.07101        40.20415        -0.75956
C         53.85386        39.48691        -0.55317
C         55.07514        41.64350        -0.89165
C         53.86595        42.35796        -0.60294
C         55.11606        44.48448        -0.74715
C         53.88605        43.77347        -0.50720
C         55.15418        45.89627        -0.47510
C         53.98150        46.58677         0.18965
C         55.14950        48.76849        -0.21763
C         53.93205        48.07058        -0.08372
C         55.11098        50.19348        -0.33325
C         53.92496        50.87999        -0.31737
C         57.62445        24.69001        -0.07775
C         56.37470        25.33209         0.17359
C         57.58251        27.47557         0.40116
C         56.35558        26.73335         0.39920
C         57.58782        28.89690         0.61989
C         56.36696        29.60946         0.79310
C         57.59356        31.74239         0.97026
C         56.34864        31.01367         0.85956
C         57.61592        33.15139         1.21616
C         56.37340        33.99826         1.15179
C         57.58529        36.22408         0.55063
C         56.37244        35.40610         0.66858
C         57.58607        37.44272        -0.18281
C         56.31335        37.97961        -0.76858
C         57.46987        40.16717        -1.16146
C         56.28257        39.49099        -0.79780
C         57.41237        41.52522        -1.61365
C         56.24289        42.34096        -1.31694
C         57.44974        44.58180        -1.55942
C         56.25588        43.78766        -1.26960
C         57.59162        45.89909        -0.88741
C         56.35605        46.62455        -0.53145
C         57.63071        48.75900        -0.46282
C         56.39293        48.03655        -0.32822
C         58.80007        25.39902        -0.08712
C         60.02594        27.53736         0.15239
C         58.80643        26.80233         0.15960
C         60.03156        28.89019         0.39896
C         58.82140        29.59952         0.64397
C         60.03166        31.65328         1.31316
C         58.82128        31.01051         0.95719
C         60.02121        32.96593         1.73991
C         58.81433        33.68694         1.69461
C         59.96903        36.68137         1.05009
C         58.79408        35.94764         1.23977
C         59.97614        37.76901         0.18168
C         58.76740        38.18183        -0.40756
C         59.81358        39.97218        -1.82244
C         58.70656        39.43959        -1.16677
C         59.68626        41.18485        -2.52098
C         58.51680        41.93242        -2.40123
C         59.62106        45.03828        -2.71815
C         58.47688        44.22382        -2.41830
C         59.81503        46.24645        -2.12681
C         58.85850        46.73466        -1.13311
C         58.78283        48.18200        -0.89580
O         58.39936        43.07094        -3.21110
O         32.32482        39.92291         1.82733
O         38.33454        29.26600        -2.19114
O         40.60628        27.86761        -2.01116
O         36.96555        20.43056        -2.12874
O         37.03997        44.12086         1.99586
O         43.87303        47.35232        -0.98255
O         55.49289        33.70798         2.27855
O         42.24054        17.94478        -1.47705
O         29.79125        31.18761         1.86151
O         38.39590        31.22605         0.80886
O         45.97538        50.58620         2.08873
O         48.56591        24.78381        -1.51987
O         58.68201        45.93632         0.09148
O         35.85475        35.82499        -1.70139
O         43.14365        45.32295         2.09857
O         58.83697        34.97386         2.24196
O         24.65386        41.87752         0.74556
O         50.72158        22.75065         1.85069
O         44.32432        21.44011        -1.88225
O         54.99071        28.80726         2.55589
H         55.81380        28.39555         2.89659
O         36.77131        51.02316        -1.77490
H         37.61291        51.49325        -1.96103
O         41.22735        26.65709         1.42973
H         41.38829        27.57910         1.72559
O         37.59278        40.15319        -1.54959
H         38.41338        40.47124        -1.98189
O         31.85421        43.64297        -2.02174
H         32.73723        43.23219        -2.14954
O         31.85385        26.65407         2.06616
H         31.05869        26.24041         2.46501
O         42.80442        23.59165        -2.32760
H         43.10151        22.83743        -2.88427
O         49.30762        52.56631         2.03602
H         50.11673        52.05701         2.25396
O         27.97318        44.69635        -2.32374
H         28.89095        44.96148        -2.55260
O         29.45833        33.50278        -1.67076
H         28.74351        33.95545        -2.17836
O         36.79994        39.63586         1.99579
H         35.93927        39.47667         2.44010
O         41.36271        43.56166         2.64996
H         41.88867        44.28739         3.06328
O         29.84730        40.53240         1.98291
H         30.68686        40.56848         2.50127
O         32.40278        31.64211        -1.88687
H         33.08342        32.16862        -2.35814
O         39.14451        17.30108        -1.85318
H         39.32203        18.06220        -2.46041
O         23.97594        43.95745        -2.23764
H         24.17334        44.88318        -2.49201
O         37.82035        33.05655        -2.32674
H         37.60579        33.95879        -2.64843
O         42.76916        50.27073         2.52709
H         43.70500        50.19416         2.81845
O         25.61237        40.37864        -2.46070
H         25.68478        39.48625        -2.86029
O         35.37559        41.70612        -1.63859
H         36.12580        41.11031        -1.90291
O         31.56722        51.31803        -1.84947
H         32.37919        51.83416        -2.04294
O         24.46757        46.39656         1.99811
H         24.53801        45.44026         2.20548
O         47.91944        28.93645         1.71080
H         47.15360        28.50301         2.14181
O         37.84478        37.07467         1.87384
H         37.71875        37.96926         2.28013
O         26.91153        35.00974        -2.18830
H         26.10504        34.56952        -2.53391
O         50.46249        44.41837         2.03571
H         51.30507        44.88688         2.22393
O         40.36047        19.71440        -2.46380
H         41.17702        19.15799        -2.55086
O         30.12763        33.66574         1.92043
H         29.83569        32.88938         2.45818
O         34.23310        47.67514        -1.74108
H         34.34487        48.49770        -2.26284
O         48.94539        29.34182        -1.77996
H         49.77776        29.73113        -2.13514
O         51.61261        30.86985        -1.75038
H         51.70833        31.78515        -2.09132
O         51.38642        37.94336        -2.11167
H         51.45429        36.99056        -2.33541
O         52.54797        27.45032         2.44217
H         53.33629        27.96072         2.76004
O         56.28214        37.56688        -2.19437
H         57.05660        37.98686        -2.62743
O         54.25136        46.46486         1.65141
H         55.13578        46.86065         1.81141
O         33.84455        47.08826         1.83597
H         33.92916        46.27181         2.37182
O         44.14700        42.50907         2.34623
H         44.04636        41.63467         2.77612
O         42.66690        23.94665         1.30792
H         42.32177        24.70949         1.82478
O         37.67793        24.53182        -2.55161
H         37.81151        25.47014        -2.80825
O         43.66607        43.59623        -1.09734
H         43.84638        44.45048        -1.54413
H         22.01207        26.83381         0.40358
H         21.98922        29.28148         0.23243
H         22.00227        31.15840        -0.14569
H         22.02717        33.55378        -0.46104
H         22.02592        35.43055        -0.32652
H         22.01548        37.84747        -0.51362
H         22.03808        39.66019        -1.22965
H         22.00677        42.09773        -1.23947
H         21.92005        44.05272        -0.32913
H         22.01697        46.28270         0.63740
H         25.36392        23.45503         0.53948
H         23.24947        24.70070         0.51017
H         25.28286        49.77921        -0.03087
H         23.21570        48.50661         0.27952
H         26.99516        22.51728         0.40928
H         26.94600        50.77402         0.12778
H         29.08157        21.29937         0.27060
H         29.04414        52.00012        -0.08148
H         32.78000        19.14572         0.11011
H         30.70271        20.37213         0.36724
H         32.85642        53.99186         0.87043
H         30.72361        52.87529         0.56552
H         34.36117        18.18636        -0.17896
H         34.42650        55.04319         0.48965
H         36.45496        16.96336        -0.28213
H         36.51397        56.28130         0.55796
H         40.09475        15.28673         1.56815
H         38.01292        16.28119         0.75579
H         40.31295        58.44951         0.22697
H         38.16922        57.24966         0.34991
H         42.58388        15.13476         1.43011
H         42.77403        58.43275         0.09392
H         44.73540        16.26567         1.17883
H         44.89962        57.20857         0.03716
H         48.54320        18.30308         0.94620
H         46.42657        17.10137         0.96650
H         48.62935        55.08547         0.02643
H         46.51162        56.26390        -0.10595
H         50.19128        19.15595         0.27756
H         50.24359        54.11959        -0.29869
H         52.31799        20.30866         0.26315
H         52.24369        52.85200        -0.76688
H         56.05655        22.62077        -0.06999
H         53.98135        21.36532         0.15560
H         56.04058        50.76530        -0.44607
H         53.94542        51.97467        -0.39976
H         57.65806        23.60974        -0.26983
H         57.63495        49.84113        -0.27831
H         59.75385        24.88864        -0.28358
H         60.96731        27.00718        -0.05098
H         60.98886        29.42755         0.37957
H         60.97359        31.09101         1.33529
H         60.93010        33.45136         2.11704
H         60.87114        36.40213         1.60948
H         60.89663        38.34794         0.02837
H         60.76124        39.41779        -1.86121
H         60.50370        41.55489        -3.15263
H         60.31298        44.67356        -3.48953
H         60.62207        46.91512        -2.46075
H         59.67186        48.79658        -1.09974
