         671
 CSIRO Nanostructure Databank - Neutral Graphene Oxide Data Set
C          5.95044        31.73099        -0.96915
C          5.92042        33.07417        -0.81899
C          8.38052        27.38394        -0.93761
C          8.37052        28.81774        -0.63922
C          7.25770        29.53778        -1.01862
C          8.40373        31.71716        -0.50019
C          7.26269        31.02291        -1.19801
C          8.35251        33.08685        -0.38147
C          7.14931        33.84608        -0.66545
C          8.32617        36.02245        -0.44789
C          7.16256        35.23358        -0.74379
C          8.38145        37.40171        -0.54125
C         10.89755        23.15503        -0.43767
C         10.75544        24.52156        -0.14014
C          9.59551        25.16470        -0.65695
C         10.80767        27.48125         0.66931
C          9.14138        26.44955        -0.26204
C         10.75106        28.82504         0.23959
C          9.58853        29.51420        -0.19977
C         10.78777        31.67330         0.12437
C          9.63345        30.96688        -0.22791
C         10.68755        33.10423         0.61009
C          9.64768        33.84356        -0.24732
C         10.79524        36.05583         0.00410
C          9.47688        35.29315         0.21374
C         10.69187        37.48421         0.53506
C          9.53363        38.18678        -0.14960
C         10.79216        40.33625        -0.06024
C          9.59640        39.54839        -0.32571
C         10.80579        41.69549        -0.31431
C         13.36288        18.84049        -0.52657
C         13.32442        20.25868        -0.47283
C         12.14988        21.00597        -0.56284
C         13.28454        23.10517         0.07118
C         12.11261        22.41910        -0.30574
C         13.21716        24.44719         0.65273
C         11.87430        25.19644         0.60335
C         13.22845        27.32976         0.87292
C         12.00120        26.68917         0.70566
C         13.15833        28.82925         1.08340
C         12.05480        29.50279         0.28109
C         13.26274        31.73995         0.80394
C         12.08092        31.01574         0.25539
C         13.22390        33.19628         0.85750
C         12.00302        33.88067         0.60703
C         13.20105        36.02118         0.67195
C         12.00277        35.28191         0.50896
C         13.17989        37.46869         0.57147
C         12.01911        38.18172         0.38276
C         13.24845        40.28738         0.17075
C         12.03583        39.62936         0.24243
C         13.32156        41.73831         0.11816
C         12.00773        42.51389        -0.13976
C         13.40254        44.53369        -0.63619
C         12.16156        43.84884        -0.70515
C         13.46744        45.93300        -0.86313
C         15.80877        14.56998        -0.68200
C         15.80028        15.98562        -0.53651
C         14.59969        16.71393        -0.56185
C         15.81659        18.82169        -0.13887
C         14.57104        18.12561        -0.42722
C         15.83156        20.22956        -0.01470
C         14.61401        20.96915        -0.38131
C         15.78117        23.09096         0.49910
C         14.58734        22.47619        -0.10463
C         15.69861        24.48241         0.83582
C         14.50106        25.18220         0.82660
C         15.68073        27.33433         1.20673
C         14.49028        26.63178         1.00553
C         15.71375        28.80911         1.06737
C         14.45549        29.56373         0.83629
C         15.68771        31.72571         1.34218
C         14.41928        31.03871         1.03064
C         15.69357        33.23093         1.30253
C         14.42447        33.93327         1.01296
C         15.67983        36.07706         0.96700
C         14.42703        35.34189         0.90730
C         15.70988        37.44188         0.83887
C         14.44020        38.24268         0.88229
C         15.77130        40.30420         0.46165
C         14.54417        39.51082         0.04895
C         15.81330        41.66400         0.24038
C         14.61583        42.33056        -0.39523
C         15.85977        44.50989        -0.26585
C         14.62489        43.83229        -0.35029
C         15.89850        45.93519        -0.48330
C         14.68848        46.63852        -0.77841
C         15.94178        48.74250        -0.94488
C         14.73682        48.04844        -0.99905
C         16.00536        50.20617        -1.32370
C         18.27286        10.32820        -0.80000
C         18.25684        11.72203        -0.89978
C         17.03682        12.45168        -0.81825
C         18.28188        14.62480        -1.04823
C         17.00619        13.84999        -0.80727
C         18.27344        15.98694        -0.38760
C         17.05278        16.67402        -0.29135
C         18.22297        18.77828         0.31858
C         17.02655        18.08915        -0.00778
C         18.19690        20.15746         0.55739
C         17.00733        20.92561         0.36973
C         18.19165        23.07639         0.97071
C         16.96988        22.36247         0.62454
C         18.21063        24.42920         1.19738
C         16.91066        25.15478         1.44652
C         18.24692        27.32293         1.70140
C         17.01365        26.62947         1.02159
C         18.23814        28.84741         1.54110
C         16.94944        29.57674         1.40078
C         18.16916        31.73260         1.05405
C         16.97228        31.03465         1.12338
C         18.17888        33.19112         0.96763
C         16.98003        33.89944         1.06490
C         18.18601        36.07631         0.77813
C         16.97431        35.37294         1.30891
C         18.21006        37.45072         0.83856
C         16.95171        38.18404         0.91393
C         18.17707        40.31268         1.30099
C         16.94521        39.57157         0.85572
C         18.19380        41.76191         0.87695
C         17.04516        42.41815         0.40038
C         18.40639        44.46313        -0.09986
C         17.06128        43.80001         0.05239
C         18.36096        45.97220        -0.14843
C         17.13250        46.65363        -0.42347
C         18.43320        48.81562        -0.72825
C         17.13910        48.05106        -0.65311
C         18.27108        50.19555        -0.04656
C         17.11880        50.98152        -0.64847
C         18.25280        53.13671        -0.15320
C         17.14316        52.33850        -0.67240
C         18.24653        54.49178        -0.17880
C         20.73532         6.03993        -0.22305
C         20.34036         7.20200        -0.86452
C         19.34150         8.17000        -0.56858
C         20.72581        10.25872        -1.10480
C         19.46359         9.54735        -0.88476
C         20.73492        11.67907        -0.96142
C         19.52280        12.43398        -0.91411
C         20.76166        14.54171        -0.58695
C         19.54131        13.83516        -0.79266
C         20.73441        15.97200        -0.29747
C         19.50718        16.63133        -0.10884
C         20.75734        18.77616         0.34796
C         19.48893        17.98404         0.58030
C         20.73918        20.14924         0.51867
C         19.47159        20.83362         0.88709
C         20.69256        23.07456         0.57822
C         19.46739        22.31647         1.03605
C         20.78221        24.46056         1.17376
C         19.49065        25.17590         1.40244
C         20.66578        27.32004         0.85971
C         19.52657        26.65243         1.23866
C         20.61946        28.77938         0.55474
C         19.39429        29.55472         0.90852
C         20.63085        31.69339         0.70458
C         19.43316        31.03450         0.94235
C         20.63020        33.15738         0.52141
C         19.40761        33.86957         0.64752
C         20.52834        36.13027        -0.25218
C         19.25181        35.26487         0.08481
C         20.65290        37.42860         0.51253
C         19.47077        38.16129         0.76444
C         20.67953        40.26807         0.99096
C         19.48166        39.58746         0.97544
C         20.73095        41.72879         1.20155
C         19.42152        42.50342         1.15902
C         20.76585        44.60349         0.65227
C         19.40462        44.01006         0.97223
C         20.78751        45.96587         0.34855
C         19.56241        46.68394         0.03803
C         20.78529        48.81658         0.20520
C         19.61354        48.09420        -0.13076
C         20.79112        50.24425         0.29459
C         19.57048        51.01509        -0.16733
C         20.71621        53.14058         0.45323
C         19.41310        52.39372         0.48529
C         20.72246        54.55772        -0.01355
C         19.41270        55.26876         0.38456
C         20.66245        57.42985        -0.07212
C         19.45449        56.71519        -0.01666
C         20.68104        58.82800        -0.19369
C         23.33001         3.34396        -0.08900
C         22.11345         4.04390        -0.08044
C         23.25164         6.10029        -0.77755
C         22.02364         5.40219        -0.43959
C         23.32469         7.49292        -1.08334
C         22.15199         8.23735        -1.43777
C         23.26974        10.39658        -1.30345
C         21.99316         9.59609        -1.21144
C         23.17913        11.70536        -0.60239
C         21.97611        12.39059        -0.70319
C         23.22271        14.48342        -0.23492
C         21.96575        13.81490        -0.49602
C         23.25880        15.96060        -0.52663
C         21.97820        16.68345        -0.12589
C         23.28733        18.77846         0.36920
C         21.98437        18.04636         0.12679
C         23.19578        20.25973        -0.03621
C         21.95842        20.93763         0.50758
C         23.21891        23.06018         1.00299
C         21.96007        22.29092         0.69267
C         23.18197        24.52550         0.61072
C         21.98895        25.23331         0.79570
C         23.11348        27.33141         0.21967
C         21.93729        26.63597         0.62290
C         23.05371        28.79959        -0.17874
C         21.86743        29.55141         0.39433
C         23.15589        31.68495         0.57474
C         21.85060        30.92280         0.47841
C         23.04361        33.07492        -0.05509
C         21.80145        33.83323         0.12007
C         23.12883        35.99495        -0.00732
C         21.84239        35.25724        -0.42361
C         23.10555        37.40590         0.28600
C         21.92342        38.08501         0.56693
C         23.22630        40.24594         0.94850
C         21.95163        39.47192         1.17510
C         23.23040        41.69803         0.94694
C         21.99312        42.44946         0.91673
C         23.20564        44.53251         0.27568
C         21.97008        43.83267         0.68911
C         23.27083        46.00353         0.37108
C         22.02254        46.70961         0.40139
C         23.26101        48.80863         0.90486
C         22.00230        48.10289         0.46639
C         23.23356        50.29582         0.67590
C         21.97800        50.94705         0.58896
C         23.27111        53.18737         0.76283
C         21.92362        52.41768         0.76974
C         23.29864        54.70376         0.63401
C         21.94842        55.35259         0.33570
C         23.20471        57.39470        -0.13234
C         21.93843        56.69827         0.09409
C         23.14129        58.84154        -0.53924
C         21.94758        59.60388         0.06156
C         23.09879        61.56707        -1.02999
C         21.92990        60.98510        -0.54283
C         24.51541         4.01257        -0.33511
C         25.73461         6.11139        -0.67207
C         24.50806         5.41040        -0.61254
C         25.77969         7.51852        -0.76388
C         24.54458         8.21849        -0.95636
C         25.72315        10.36121        -0.86885
C         24.54386         9.64208        -1.01980
C         25.67006        11.87348        -0.86366
C         24.41218        12.29753         0.00780
C         25.58706        14.45066         0.65690
C         24.35395        13.78970         0.08869
C         25.58707        15.95204         0.44306
C         24.51440        16.62829        -0.02675
C         25.76856        18.81585         0.19480
C         24.52501        18.11821        -0.30066
C         25.78700        20.30499        -0.06167
C         24.47917        21.00303         0.27683
C         25.67036        23.13808         0.54675
C         24.46214        22.34058         0.55503
C         25.62798        24.50046         0.32063
C         24.35907        25.22359         0.27725
C         25.54944        27.31885        -0.52298
C         24.31398        26.62320         0.03175
C         25.58555        28.82271        -0.26349
C         24.37030        29.53837        -0.03888
C         25.60731        31.65825        -0.01765
C         24.38012        30.92641         0.09252
C         25.62389        33.08513         0.02959
C         24.36472        33.83883        -0.17576
C         25.61722        35.98161         0.23180
C         24.34203        35.30868        -0.00266
C         25.65831        37.37899         0.40593
C         24.40009        38.17581         0.14297
C         25.67947        40.16034         1.09561
C         24.39637        39.53297         0.80245
C         25.70775        41.71893         1.14270
C         24.44990        42.37621         0.82719
C         25.76987        44.49611         0.48165
C         24.50716        43.75329         0.34966
C         25.74854        45.93700         0.10946
C         24.48138        46.69851         0.25616
C         25.70091        48.86913         0.32266
C         24.52062        48.12013         0.42445
C         25.69990        50.28769         0.41050
C         24.46302        51.01361         0.55358
C         25.64511        53.12397        -0.03408
C         24.46409        52.42804         0.41405
C         25.60923        54.49073        -0.35505
C         24.27745        55.18029        -0.43629
C         25.57635        57.36824        -0.83005
C         24.34580        56.69254        -0.41052
C         25.61276        58.75976        -0.89608
C         24.46963        59.57693        -0.35903
C         24.34322        60.94237        -0.97236
C         26.98785         8.26708        -0.70119
C         28.19021        10.43188        -0.65901
C         26.97478         9.66766        -0.73517
C         28.19334        11.80834        -0.45807
C         26.92333        12.53079        -0.31855
C         28.17982        14.38491         0.76680
C         26.89395        13.77933         0.22133
C         28.14064        15.91475         0.85200
C         26.83765        16.66548         0.80412
C         28.12472        18.85201         0.92896
C         26.87122        18.13708         0.58639
C         28.15756        20.31544         0.77371
C         26.97331        20.98336         0.56644
C         28.19225        23.11720         0.59619
C         26.92399        22.42664         0.94928
C         28.11469        24.48700         0.11782
C         26.85130        25.24751         0.14436
C         28.08825        27.32125        -0.21445
C         26.84208        26.60580        -0.12963
C         28.05571        28.75234        -0.71003
C         26.78852        29.51565        -0.37816
C         28.03946        31.70010        -0.36304
C         26.83191        30.95074        -0.24830
C         28.07798        33.09466        -0.13853
C         26.83703        33.79967         0.04216
C         28.08035        35.93420         0.20047
C         26.84092        35.23820         0.16989
C         28.10147        37.32893         0.43464
C         26.90230        38.06056         0.56533
C         28.14352        40.22440         0.90772
C         26.95547        39.49304         0.82757
C         28.19368        41.67519         0.95481
C         26.99037        42.39355         0.90305
C         28.20985        44.56505         0.87978
C         26.94999        43.81683         0.67874
C         28.21764        46.05064         0.74264
C         27.03043        46.70623         0.09353
C         28.20481        48.90722         0.63102
C         27.01694        48.22513        -0.08885
C         28.18818        50.36270         0.22905
C         26.93416        51.01959         0.20065
C         28.07959        53.10463        -0.47135
C         26.88562        52.41028        -0.09750
C         28.01354        54.47753        -0.80913
C         26.79203        55.18751        -0.75931
C         26.73630        56.58003        -1.06468
C         29.41891        12.53078        -0.32910
C         30.65567        14.58318         0.21059
C         29.44672        13.85204         0.11953
C         30.69159        15.97695         0.45674
C         29.36570        16.69767         0.36695
C         30.67826        18.87645         0.75950
C         29.43132        18.11047         0.91606
C         30.65143        20.29627         0.84311
C         29.41427        21.01299         0.87532
C         30.67195        23.14723         0.65505
C         29.41580        22.43692         0.68471
C         30.67745        24.59331         0.49752
C         29.41880        25.24189         0.05502
C         30.60336        27.37605        -0.11316
C         29.30109        26.69909         0.01141
C         30.58740        28.83324        -0.36022
C         29.26128        29.54403        -0.18934
C         30.51921        31.68618        -0.26254
C         29.30065        30.96338        -0.77845
C         30.58521        33.14907        -0.60665
C         29.31276        33.85063        -0.17550
C         30.56406        35.99535        -0.19730
C         29.32684        35.22728        -0.01474
C         30.58954        37.35778        -0.00704
C         29.40165        38.01341         0.58329
C         30.67443        40.24760         0.57690
C         29.42537        39.49685         0.84020
C         30.69521        41.66345         0.78819
C         29.48552        42.37800         0.91532
C         30.63533        44.52177         0.44433
C         29.49829        43.82474         0.81640
C         30.57378        45.94817        -0.09635
C         29.57359        46.76113         0.73502
C         30.66774        48.85102        -0.01294
C         29.48791        48.20419         0.30336
C         30.72571        50.36020        -0.12597
C         29.37147        51.04411        -0.12963
C         29.30900        52.38871        -0.49629
C         31.87056        16.72893         0.51100
C         33.11361        18.91261         0.56739
C         31.90215        18.16916         0.60283
C         33.13388        20.31943         0.68585
C         31.88378        21.02559         0.81741
C         33.13791        23.15552         1.24931
C         31.86770        22.44590         0.83791
C         33.10152        24.67104         1.02332
C         31.83136        25.32074         0.64012
C         33.09939        27.52140         0.20405
C         31.80933        26.83290         0.62850
C         33.07337        28.95022         0.06216
C         31.77942        29.57610         0.05205
C         33.38377        31.95573         0.09434
C         31.53203        30.94481         0.32396
C         33.14967        33.28613        -0.39017
C         31.87611        33.90636        -0.34208
C         32.96470        36.02917        -0.91706
C         31.80989        35.30859        -0.51646
C         33.04544        37.51598        -0.85580
C         31.78378        38.18092        -0.31040
C         33.10818        40.23197         0.20727
C         31.83335        39.56578         0.22952
C         33.23016        41.61730         0.31020
C         31.99959        42.35300         0.69212
C         33.00733        44.47655        -0.41666
C         31.93756        43.86941         0.46114
C         33.07907        45.96778        -0.24106
C         31.90839        46.68356        -0.12338
C         31.87425        48.10719        -0.13557
C         34.34440        21.08007         0.56087
C         35.56268        23.22638         0.51602
C         34.38395        22.47626         0.70434
C         35.61372        24.64975         0.52591
C         34.36276        25.42640         0.72443
C         35.53033        27.51019        -0.06820
C         34.31139        26.82997         0.22344
C         35.50198        28.89894        -0.35284
C         34.30946        29.65849        -0.18360
C         35.49917        31.79524        -1.04115
C         34.34287        31.09910        -0.40894
C         35.55145        33.28127        -0.97767
C         34.27135        33.95582        -0.93452
C         35.95351        36.29101        -1.24029
C         34.06513        35.27622        -1.35626
C         35.79796        37.76830        -1.02637
C         34.36840        38.15443        -0.48706
C         36.19854        40.57316        -0.02095
C         34.27465        39.36838         0.12787
C         35.76803        41.87950        -0.28747
C         34.44505        42.40396        -0.02064
C         34.31126        43.76068        -0.29937
C         36.78261        25.36770         0.30538
C         37.99919        27.48202         0.03761
C         36.79772        26.79296         0.07939
C         38.06963        28.84301        -0.50429
C         36.76008        29.55141        -0.79105
C         38.03181        31.80297        -0.76667
C         36.80438        31.03589        -1.05022
C         37.99634        33.19390        -0.67207
C         36.76872        33.95508        -0.85697
C         37.88949        35.99511         0.22717
C         36.82698        35.41633        -0.67719
C         38.04160        37.49525         0.05898
C         37.06043        38.33538        -0.36230
C         37.25792        39.79151        -0.47405
C         39.26843        29.68677        -0.34022
C         40.47103        31.82113        -0.28100
C         39.24850        31.05793        -0.46378
C         40.45769        33.17568        -0.23331
C         39.21369        33.92355        -0.30522
C         39.18651        35.24556         0.04886
O         35.36756        39.83948         0.84531
O         20.05207        42.16268         2.46620
O         28.86317        24.63287        -1.15943
O          9.62985        26.84412         1.01655
O         20.27077        36.75898        -1.50371
O         19.58139        29.05778        -0.47963
O         12.44629        30.18922        -0.92910
O         15.66864        32.50633         2.60038
O         37.46423        28.85728        -1.86709
O         25.68001        40.90755         2.35038
O         12.29914        24.52039         1.81775
O         35.02716        35.84411        -2.20723
O         36.06987        31.30638        -2.29451
O         22.64285        52.81497         2.02698
O         23.33393        31.91250         1.96099
O         20.30332        24.64136         2.52678
O         33.81411        25.37736         2.11547
O         32.15225        38.21756        -1.76818
O         29.62405        38.53412         1.95200
O         27.98635        45.46355         2.06377
O         12.66507        42.42021         1.19996
O         21.10408         7.52279        -2.01018
O         14.81993        21.93833        -1.45714
O         27.48565        16.30103         2.08823
O         19.57579        21.47850         2.22119
O         28.76677        18.41242         2.17861
O         17.60703        29.42356         2.72672
O         26.55156        46.08811        -1.14427
O         30.79853        27.90096        -1.47933
O         15.24679        29.16582        -0.32062
O         32.31149        43.33988         1.74921
O         23.66357        33.28993        -1.34572
O         32.51152        31.56597         1.11579
O         24.51934        18.30358        -1.72319
O         23.82242        43.98245        -0.93840
O         19.48809        17.68406         2.02206
H         18.64758        17.22302         2.22799
O         31.47495        50.74576        -1.28744
H         30.99784        50.41912        -2.07773
O         25.50353        12.36703        -2.20292
H         24.79734        11.83016        -2.64694
O         17.26514        26.62733        -0.40352
H         17.14339        27.53380        -0.75924
O         18.29330        14.89728        -2.49720
H         19.11852        15.38971        -2.69613
O         29.35619        30.89993        -2.22588
H         28.66307        30.25651        -2.52976
O         37.45473        35.76586         1.61044
H         38.11334        36.18460         2.20333
O         18.72027        48.99960        -2.15552
H         17.88446        49.32317        -2.58467
O         18.67342        34.93650        -1.21452
H         19.05268        35.65233        -1.81657
O         10.17496        33.84407        -1.60962
H         10.30880        32.90892        -1.87970
O         20.50835        23.31045        -0.85845
H         20.91810        22.56960        -1.35568
O         31.59841        27.21386         2.02553
H         32.32395        26.78551         2.53895
O         29.04362        29.64786         1.23624
H         29.81723        30.08372         1.65330
O         27.99329        48.79584         2.06344
H         28.74596        48.28874         2.45020
O         25.48062        27.16824        -1.97306
H         26.25751        27.64001        -2.35329
O         16.64138        25.04474         2.86605
H         17.39897        25.46388         3.34516
O         23.76888        55.21306         1.90020
H         23.36491        54.65419         2.60105
O         24.61982        11.72806         1.32690
H         24.98307        12.44952         1.90251
O         21.96948        39.20861         2.63076
H         21.90926        40.07301         3.09179
O         23.28268        23.08877         2.46876
H         23.40789        22.17034         2.78849
O         19.30863        55.19037         1.84861
H         19.95112        55.82966         2.22594
O          9.12652        35.24602         1.62198
H          9.32732        36.13174         2.01825
O         18.09780        40.30708         2.76768
H         18.82935        40.89018         3.08861
O         18.22835        27.05661         3.12436
H         17.84273        27.85077         3.56860
O         24.48175        38.49620        -1.29959
H         24.30909        37.66659        -1.79592
O         24.72074        59.74771         1.08821
H         25.56871        60.22891         1.19034
O         25.51106        14.21080         2.10242
H         26.36707        14.52758         2.48847
O         14.64821        41.95182        -1.82927
H         15.46334        42.33747        -2.21658
O         23.36147        10.74270        -2.76061
H         22.52886        11.20529        -3.00163
O         14.29908        38.69176         2.26491
H         14.47668        37.93078         2.85637
O         20.72389        54.50115        -1.48364
H         21.66106        54.38658        -1.77384
O         17.08026        35.45482         2.78588
H         16.47399        34.78364         3.17036
O         17.98037        49.89484         1.32998
H         18.13133        50.71478         1.86063
O         18.95451        44.00092        -1.37847
H         18.48676        44.47135        -2.09994
O         30.07196        46.81999         2.09734
H         29.56808        46.13657         2.60969
O         19.10278        52.24830         1.90753
H         19.05482        53.16677         2.27039
O         22.79295        28.79924        -1.62161
H         21.90871        28.40064        -1.77007
O         10.42072        37.49003         1.97284
H         10.43916        38.42307         2.27589
O         23.28198        16.02855        -1.98399
H         23.73712        16.89721        -2.20842
O         16.27490        50.23974        -2.75324
H         16.40388        51.17604        -3.01464
O         23.53076        18.71914         1.79934
H         22.67692        18.84446         2.26570
O         28.12428        28.61664        -2.16681
H         28.95375        28.11276        -2.36118
O         29.11233        16.84891        -1.06877
H         29.93792        17.15181        -1.50214
O         28.26814        13.90109         2.15107
H         28.86825        14.50178         2.64245
O         23.29400        48.65574         2.38397
H         22.58579        49.22660         2.75283
O         26.85055        22.40048         2.43847
H         27.59487        21.84837         2.76403
O         22.91890        58.80391        -1.97911
H         22.05240        58.36941        -2.13266
O         10.27645        32.95637         1.98920
H          9.83357        33.80209         2.25785
O         21.96181        35.04415        -1.84940
H         21.37636        35.75242        -2.25335
O         18.96507        44.58240         2.22322
H         19.41365        44.08427         2.94218
O          7.54530        31.21262        -2.64647
H          7.47614        32.17500        -2.82805
O         26.01802        20.45240        -1.49480
H         25.53095        19.67543        -1.91380
O         32.49049        44.24781        -1.79788
H         33.20183        44.50454        -2.42338
O         22.07190        59.73815         1.50643
H         23.03147        59.86590         1.70889
O         33.19186        22.94758         2.69266
H         33.72195        23.69356         3.05940
O         14.71216        39.14912        -1.34102
H         14.70144        39.99075        -1.85851
O         27.20254        48.50987        -1.49295
H         26.82058        47.74550        -1.98765
O         35.79294        38.36586        -2.35093
H         35.21581        37.80136        -2.91375
O         30.08807        45.86960        -1.45540
H         30.73953        45.31978        -1.95310
O         22.97152        20.35785        -1.46584
H         23.51697        19.62938        -1.89063
O         12.86382        29.04857         2.49169
H         12.13679        28.44806         2.76130
O         30.56489        33.23612        -2.07806
H         30.01809        32.49112        -2.43508
O         19.81850        51.31046        -1.56291
H         19.70665        50.46211        -2.06685
O         11.01783        36.27950        -1.40755
H         10.97684        35.40795        -1.86787
O         23.67147        54.79645        -1.72188
H         24.24129        55.15309        -2.43658
H          5.01549        31.16055        -1.07543
H          4.96033        33.61077        -0.77130
H          7.84523        27.06760        -1.84558
H          6.38823        28.99297        -1.41712
H          6.23176        35.75627        -1.01696
H          7.52265        37.94350        -0.97098
H         10.03722        22.63520        -0.88575
H          9.01123        24.61303        -1.40997
H          8.73117        40.07730        -0.75714
H          9.90699        42.17682        -0.72955
H         12.42403        18.28667        -0.67821
H         11.19516        20.48653        -0.73366
H         11.27957        44.36954        -1.10706
H         12.54172        46.48556        -1.08193
H         14.85027        14.02806        -0.67351
H         13.65446        16.17968        -0.74273
H         13.80526        48.58259        -1.23849
H         15.01152        50.70159        -1.13806
H         17.31606         9.79916        -0.66952
H         16.09409        11.89276        -0.71010
H         16.29483        52.88920        -1.11509
H         17.39431        55.03940        -0.61194
H         20.07962         5.59274         0.53973
H         18.42572         7.85028        -0.04650
H         18.50431        57.26280        -0.11706
H         19.72579        59.37004        -0.27640
H         23.33992         2.27187         0.15189
H         21.19364         3.51209         0.20303
H         23.04214        62.58171        -1.45534
H         20.99453        61.56462        -0.53710
H         25.47828         3.48620        -0.26825
H         26.67312         5.54686        -0.56386
H         26.55724        59.26704        -1.15074
H         25.24011        61.46418        -1.33866
H         27.94506         7.73482        -0.59460
H         29.14955         9.89251        -0.68777
H         28.93257        55.00360        -1.10759
H         27.66452        57.08534        -1.37177
H         30.35897        12.03280        -0.61487
H         31.60125        14.05972        -0.00546
H         31.30738        50.74215         0.75868
H         30.23064        52.90827        -0.79693
H         32.83409        16.19714         0.47250
H         34.06473        18.37211         0.44847
H         34.05120        46.48244        -0.29285
H         32.81673        48.65710        -0.27788
H         35.27086        20.54578         0.29708
H         36.49295        22.68601         0.27848
H         36.45399        42.54980        -0.82755
H         35.21017        44.31481        -0.61394
H         37.73763        24.82610         0.22800
H         38.93507        26.96675         0.30196
H         38.97737        37.93292         0.44503
H         38.15233        40.20458        -0.96262
H         40.21319        29.18964        -0.07109
H         41.41455        31.26775        -0.16597
H         41.38982        33.73577        -0.06712
H         40.12172        35.73654         0.36415
