         671
 CSIRO Nanostructure Databank - Neutral Graphene Oxide Data Set
C          5.85556        31.76014         0.11781
C          5.85488        33.11236        -0.07699
C          8.37427        27.56175         0.96027
C          8.37418        28.97834         0.77819
C          7.13839        29.66559         0.60308
C          8.29334        31.80055         0.45464
C          7.07972        31.04529         0.38624
C          8.30754        33.19579         0.21383
C          7.07412        33.88784        -0.05028
C          8.29766        36.01442        -0.27849
C          7.07799        35.26898        -0.25632
C          8.32732        37.40841        -0.49618
C         10.93829        23.33900         1.12359
C         10.87441        24.72405         0.96357
C          9.64970        25.44094         1.09882
C         10.73521        27.57206         0.29259
C          9.55976        26.81551         0.85766
C         10.91871        28.92278         1.03073
C          9.60199        29.72313         0.84984
C         10.61188        31.99880         1.10712
C          9.50863        31.12503         0.81012
C         10.75980        33.26704         0.60784
C          9.54254        33.93224         0.18827
C         10.80561        35.99824        -0.32488
C          9.52739        35.30560        -0.08247
C         10.79619        37.46575        -0.44675
C          9.54939        38.15345        -0.53792
C         10.76894        40.28903        -0.77924
C          9.56179        39.56213        -0.69519
C         10.76588        41.72576        -0.89174
C         13.27924        19.08338         0.82298
C         13.42056        20.47693         1.03831
C         12.20363        21.22335         1.02567
C         13.39831        23.33460         0.76888
C         12.16071        22.61473         0.99483
C         13.33479        24.70295         0.51914
C         12.08610        25.44336         0.56692
C         13.13568        27.47749        -0.51607
C         12.01543        26.77837         0.21885
C         13.24958        28.95220        -0.14489
C         12.20615        29.60465         0.54205
C         13.49191        31.73119         0.45434
C         12.48553        30.90925         0.97336
C         13.43638        33.22163         0.69153
C         12.06356        34.02881         0.83348
C         13.35609        36.07277        -0.14847
C         12.09825        35.28258        -0.04307
C         13.27332        37.45407        -0.46423
C         12.01100        38.18541        -0.47148
C         13.26866        40.34854        -0.77243
C         12.00533        39.58594        -0.67325
C         13.23188        41.79575        -1.26021
C         11.91228        42.52143        -0.93314
C         12.80163        44.81271        -0.56181
C         11.76966        43.93947        -1.01921
C         13.19643        46.09929        -0.86366
C         15.91849        14.83301         0.88370
C         15.87460        16.22860         0.99184
C         14.60689        16.87608         0.69072
C         16.10333        19.20293         1.51732
C         14.27121        18.12891         1.17559
C         15.96561        20.54991         1.17514
C         14.69227        21.21928         1.09283
C         15.86157        23.35111         0.46621
C         14.66147        22.62111         0.80919
C         15.82991        24.68293         0.05727
C         14.57303        25.43006         0.22487
C         15.63201        27.42354        -1.05636
C         14.48231        26.82720        -0.27546
C         15.75404        28.89589        -0.60429
C         14.43844        29.65541        -0.44913
C         15.76869        31.75793        -0.57972
C         14.53069        31.06361        -0.25155
C         15.98030        33.13099         0.03783
C         14.69229        33.96852         0.30261
C         15.64906        35.98457        -0.92683
C         14.59291        35.37724        -0.20390
C         15.39073        37.23899        -1.49691
C         14.40166        38.10198        -1.02512
C         15.75811        40.34031        -1.73264
C         14.55386        39.58659        -1.04150
C         15.79446        41.78819        -1.26213
C         14.57889        42.43107        -0.91774
C         15.80054        44.53398        -0.42861
C         14.66659        43.68508        -0.31027
C         15.69836        45.93619        -0.28706
C         14.46261        46.69673        -0.40430
C         15.67838        48.84600         0.28658
C         14.51158        48.07827        -0.27480
C         15.91656        50.20068        -0.41029
C         18.31682        10.40998         0.99307
C         18.38107        11.89472         0.72704
C         17.08602        12.66264         0.84403
C         18.37642        14.71832         1.24830
C         17.10339        14.03178         1.01195
C         18.42300        16.22503         1.36031
C         17.11384        16.97422         1.19073
C         18.57757        19.05888         1.12585
C         17.22788        18.36273         1.24541
C         18.45660        20.48537         0.59420
C         17.25190        21.26614         0.96848
C         18.34192        23.31638        -0.11409
C         17.18701        22.71186         0.55634
C         18.26784        24.67155        -0.52149
C         17.01167        25.38152        -0.40167
C         18.16162        27.45012        -1.05885
C         16.95877        26.72605        -0.80738
C         18.15641        28.86974        -1.21569
C         16.83497        29.61470        -1.40554
C         18.17108        31.70865        -1.08133
C         16.88520        31.06990        -1.00932
C         18.20429        33.17218        -1.25001
C         17.09629        33.94788        -0.62868
C         18.24990        36.03812        -1.59880
C         17.01261        35.38945        -1.00573
C         18.33108        37.48883        -1.59627
C         17.26502        38.30124        -1.88258
C         18.28033        40.35654        -1.19897
C         17.12070        39.67687        -1.54487
C         18.29961        41.78379        -1.09927
C         17.02322        42.47980        -1.06857
C         18.25579        44.58927        -0.60882
C         17.03419        43.87420        -0.76202
C         18.24510        45.92418        -0.21840
C         16.98194        46.72330        -0.42498
C         18.14764        48.69884         0.55739
C         16.97253        48.05811         0.26775
C         18.19104        50.13210         0.72651
C         17.10304        50.92581         0.21861
C         18.33006        53.01950         0.70995
C         17.21649        52.29865         0.13128
C         18.47037        54.37810         0.60322
C         20.72454         6.15768         0.81276
C         20.69916         7.50497         1.19125
C         19.51443         8.26667         1.15312
C         20.75689        10.42600         1.31957
C         19.49078         9.69755         1.20132
C         20.79551        11.80028         1.37020
C         19.48455        12.53282         1.56838
C         20.84828        14.75501         1.61503
C         19.54182        14.02777         1.37340
C         20.87032        16.06046         0.82201
C         19.54029        16.71007         0.41166
C         20.35677        18.84341        -0.56591
C         19.55395        18.23483         0.32593
C         20.45460        20.30050        -0.89534
C         19.52263        21.10990        -0.00499
C         20.67703        23.12710        -0.84719
C         19.53480        22.54605        -0.29738
C         20.61938        24.51660        -1.45085
C         19.43508        25.33904        -0.97644
C         20.64318        27.50139        -1.14482
C         19.42245        26.74967        -1.09161
C         20.62412        28.89222        -1.04036
C         19.36482        29.57603        -1.13185
C         20.58317        31.81148        -0.75349
C         19.35563        31.01530        -1.11942
C         20.73501        33.12929        -1.48340
C         19.47121        33.87353        -1.64868
C         20.73047        36.03935        -1.91238
C         19.44534        35.35277        -1.62392
C         20.84018        37.48797        -1.62589
C         19.59010        38.13052        -1.19218
C         20.82780        40.34771        -1.14245
C         19.55463        39.62735        -1.01368
C         20.78165        41.75235        -0.98322
C         19.52348        42.43845        -0.95014
C         20.70274        44.43172        -0.05404
C         19.57597        43.94088        -0.95087
C         20.69800        45.93273         0.07245
C         19.47570        46.58516         0.12732
C         20.65840        48.76540         0.46761
C         19.42697        47.93439         0.80475
C         20.62279        50.09020         1.19331
C         19.37800        50.75251         1.19551
C         20.54607        52.83546         2.04901
C         19.31134        52.20158         1.48798
C         20.73490        54.21486         1.60676
C         19.55065        55.10627         1.37058
C         20.35625        57.55272         1.60867
C         20.13968        56.38420         0.75541
C         20.61201        58.79731         1.02093
C         23.10555         3.49693        -0.35993
C         21.91926         4.14927        -0.01157
C         23.20015         6.06020         0.80190
C         21.95023         5.44782         0.56574
C         23.28093         7.35794         1.57225
C         21.97515         8.16800         1.57849
C         23.27688        10.39138         1.37859
C         22.00675         9.66871         1.52718
C         23.29870        11.76619         1.33741
C         22.05033        12.51970         1.38229
C         23.33741        14.59889         1.27479
C         22.08065        13.90733         1.35445
C         23.33788        15.97208         0.93754
C         22.09594        16.57448         0.48016
C         23.27365        18.68227        -0.05850
C         22.26361        17.78315        -0.30445
C         23.20944        20.09869        -0.56126
C         21.92042        20.83183        -0.93986
C         23.22750        23.10854        -1.10785
C         21.91382        22.35035        -1.10372
C         23.21182        24.59754        -0.98396
C         21.96241        25.28179        -1.39413
C         23.15397        27.47865        -0.78511
C         21.94263        26.79756        -1.24918
C         23.07014        28.90797        -0.31517
C         21.85028        29.65982        -0.79635
C         23.06203        31.81852        -0.26806
C         21.85207        31.01930        -0.70747
C         23.13978        33.20504        -0.89291
C         21.97369        33.80599        -1.40524
C         23.30700        35.96879        -1.83186
C         22.01198        35.21597        -1.88548
C         23.29832        37.51786        -1.89681
C         22.01535        38.21277        -1.65381
C         23.26352        40.39042        -1.37365
C         22.03868        39.64487        -1.35551
C         23.24032        41.76183        -1.08267
C         22.01939        42.46902        -0.84993
C         23.22968        44.54932        -0.22443
C         22.02708        43.82875        -0.45065
C         23.19153        45.91964         0.21574
C         21.94529        46.61456         0.34369
C         23.14087        48.67094         0.95783
C         21.93668        47.98728         0.65162
C         23.06584        50.01516         1.50576
C         21.83831        50.67975         1.64456
C         23.07295        52.78440         2.19468
C         21.78135        52.01028         2.40885
C         23.16249        54.04397         1.65183
C         21.93701        54.71573         1.25228
C         23.04060        56.91035         0.98806
C         21.88763        56.01136         0.48275
C         22.98047        58.22013         1.41049
C         21.95965        59.26740         1.19218
C         23.57161        61.18252         0.65036
C         22.29965        60.59002         0.90937
C         24.33667         4.11492        -0.18019
C         25.66894         6.06709         0.49866
C         24.42083         5.42384         0.39456
C         25.80724         7.41800         1.15073
C         24.45730         8.17053         0.96404
C         25.67760        10.36420         0.69124
C         24.57620         9.62108         1.46478
C         25.76973        11.77489         1.22147
C         24.58486        12.47204         1.38285
C         25.78398        14.65235         1.35516
C         24.57998        13.91665         1.41655
C         25.77270        16.04997         1.08482
C         24.53196        16.71624         0.85504
C         25.65982        18.87459         0.60195
C         24.49676        18.13167         0.51972
C         25.64804        20.32952         0.34706
C         24.37886        20.97390        -0.18129
C         25.58542        23.15114        -0.16000
C         24.53805        22.32887        -0.89771
C         25.58613        24.63101        -0.28258
C         24.35578        25.33070        -0.75249
C         25.58320        27.52325        -0.45510
C         24.34350        26.78472        -0.67113
C         25.58841        28.89944        -0.46360
C         24.36307        29.68465        -0.49279
C         25.59381        31.83907        -0.00063
C         24.35937        31.05118        -0.39507
C         25.65163        33.27262        -0.52514
C         24.35184        34.03721        -0.51039
C         25.69247        36.05510        -1.21577
C         24.48339        35.35133        -1.23555
C         25.71180        37.49351        -1.43043
C         24.55146        38.21043        -1.57398
C         25.78538        40.33639        -1.14172
C         24.56681        39.70758        -1.78565
C         25.77701        41.80793        -1.03142
C         24.48977        42.56033        -1.05076
C         25.70125        44.63215        -0.29343
C         24.48900        43.94261        -0.50914
C         25.67838        45.96062         0.20338
C         24.41448        46.63202         0.40630
C         25.64471        48.81754         0.82086
C         24.37790        47.99686         0.79515
C         25.60639        49.88032         1.91040
C         24.29379        50.58194         2.12892
C         25.55417        52.86450         2.80856
C         24.29681        52.04307         2.54629
C         25.58159        54.17000         2.00965
C         24.42788        54.76980         1.56093
C         25.72345        56.91497         1.13120
C         24.41236        56.15225         0.89679
C         25.90320        58.28437         0.62900
C         25.00399        59.22535         1.04610
C         24.80978        60.58173         0.61964
C         26.99475         8.25469         0.69782
C         28.19298        10.41027         0.22021
C         26.98254         9.60176         0.65482
C         28.28676        11.79743         0.82903
C         27.07290        12.41142         1.38229
C         28.30015        14.69329         1.13611
C         27.07676        13.98602         1.51350
C         28.25225        16.10904         0.98659
C         27.00240        16.77240         1.02024
C         28.24878        18.97651         0.57989
C         26.93403        18.23071         0.95110
C         28.14601        20.34958         0.03579
C         26.93929        21.00057         0.06287
C         28.14913        23.21034        -0.41092
C         26.91277        22.47368        -0.02096
C         28.04889        24.66287        -0.69390
C         26.88781        25.33068        -0.44430
C         28.13477        27.50985        -0.46021
C         26.86132        26.79243        -0.09698
C         28.14498        28.90830        -0.40683
C         26.86721        29.63579        -0.51389
C         28.13335        31.84249         0.04487
C         26.87188        31.11174        -0.35075
C         28.16208        33.14597        -0.77651
C         26.85612        33.92413        -0.71439
C         28.17760        36.04992        -0.95430
C         26.92697        35.35368        -0.95856
C         28.23322        37.46371        -1.03498
C         27.02936        38.23012        -1.52404
C         28.13870        40.29848        -0.33133
C         26.93215        39.63826        -0.96613
C         28.17954        41.79404        -0.56289
C         27.02464        42.49533        -0.65464
C         28.23707        44.56562        -0.04828
C         27.02086        44.01122        -0.74755
C         28.19202        45.89190         0.67710
C         26.90014        46.66403         0.52738
C         28.15641        48.70700         1.16929
C         26.90759        47.99617         0.88418
C         28.14469        50.03763         1.65933
C         26.89189        50.59740         2.22248
C         28.14368        52.82040         2.51461
C         26.87542        52.03319         2.69886
C         28.03886        54.27407         2.30011
C         26.85367        54.87781         1.97099
C         26.84216        56.25727         1.54464
C         29.44246        12.52866         0.73222
C         30.69681        14.68354         0.65936
C         29.49805        13.96753         0.90840
C         30.71173        16.08401         0.52570
C         29.46170        16.82357         0.63196
C         30.58588        18.80310        -0.41967
C         29.42937        18.17444         0.31524
C         30.56624        20.32054        -0.41312
C         29.39202        21.01284        -0.35393
C         30.61733        23.20401        -0.73411
C         29.33538        22.42437        -0.92113
C         30.60086        24.61528        -0.77956
C         29.32132        25.36739        -1.11261
C         30.55945        27.50899        -0.66576
C         29.33872        26.81339        -0.67977
C         30.57763        28.88519        -0.40123
C         29.36848        29.61592        -0.34858
C         30.60440        31.74180        -0.18440
C         29.40165        31.05628        -0.19955
C         30.60692        33.22937         0.08015
C         29.38614        33.95655        -0.44129
C         30.71079        35.98444        -0.79892
C         29.40543        35.29525        -0.68409
C         30.73210        37.49569        -0.87053
C         29.43523        38.21094        -0.81384
C         30.65987        40.33553        -0.39075
C         29.44426        39.59693        -0.61400
C         30.69561        41.72116        -0.34512
C         29.49010        42.53255        -0.75446
C         30.67894        44.56735         0.25168
C         29.42359        43.90313        -0.11398
C         30.68070        45.94830         0.45683
C         29.39963        46.72352         0.25214
C         30.63384        48.76985         1.06892
C         29.39193        48.08320         0.89401
C         30.60020        50.13805         1.40560
C         29.37097        50.78647         1.70667
C         29.35079        52.15448         2.02473
C         31.91416        16.82074         0.33851
C         33.07582        18.95572        -0.04957
C         31.90524        18.19038         0.00948
C         33.09530        20.34205        -0.37708
C         31.83139        21.00400        -0.89301
C         33.05342        23.21548        -0.66439
C         31.83468        22.50571        -0.68455
C         33.04848        24.63300        -0.71209
C         31.81440        25.32279        -0.76347
C         33.09295        27.50594        -0.69162
C         31.82010        26.79816        -1.09275
C         33.10794        28.85129        -0.40038
C         31.84732        29.55506         0.02693
C         33.07243        31.71552        -0.08313
C         31.85404        31.04458        -0.19207
C         33.11736        33.16763        -0.11162
C         31.92301        33.89498        -0.22745
C         33.17357        36.00173        -0.38882
C         31.95344        35.28876        -0.43025
C         33.16114        37.45181        -0.37748
C         31.97242        38.15426        -0.46373
C         33.17791        40.31755        -0.49817
C         31.92795        39.59199        -0.01066
C         33.15778        41.75448        -0.05015
C         31.93141        42.43201        -0.04090
C         33.14069        44.53822         0.47460
C         31.90708        43.83941         0.23663
C         33.11604        45.93597         0.70603
C         31.90363        46.65947         0.69144
C         31.86237        48.06263         0.91527
C         34.27294        21.07144        -0.33079
C         35.51501        23.16959        -0.70910
C         34.32635        22.49248        -0.59073
C         35.58093        24.62449        -1.09290
C         34.29990        25.37391        -0.80368
C         35.62537        27.50132        -0.94965
C         34.32281        26.74922        -0.77467
C         35.60177        28.89334        -0.35107
C         34.34292        29.58163        -0.20830
C         35.51652        31.70181         0.36534
C         34.29465        30.96593         0.01892
C         35.57448        33.16035         0.19042
C         34.36603        33.86983        -0.06003
C         35.62851        35.99239         0.02076
C         34.38490        35.29158        -0.14584
C         35.63416        37.42678         0.00633
C         34.42110        38.16021        -0.14732
C         35.65584        40.28274         0.07665
C         34.43584        39.56155        -0.13332
C         35.61529        41.69993         0.20334
C         34.39383        42.43266         0.20474
C         34.36314        43.82049         0.46177
C         36.80152        25.34338        -0.57118
C         38.06573        27.44268        -0.29112
C         36.84435        26.70581        -0.52000
C         38.07237        28.82749        -0.20239
C         36.80113        29.52864        -0.09813
C         38.07292        31.70762         0.23535
C         36.83070        30.93020         0.35077
C         38.04915        33.08594         0.37788
C         36.80971        33.83546         0.29990
C         38.09605        35.98286         0.26139
C         36.83000        35.26621         0.20797
C         38.08326        37.40441         0.21728
C         36.87735        38.13937         0.13936
C         36.86354        39.55572         0.18857
C         39.28973        29.60136        -0.14820
C         40.52605        31.75890        -0.11886
C         39.30325        30.97608         0.00518
C         40.54535        33.08641         0.12045
C         39.34090        33.81299         0.66272
C         39.29604        35.27617         0.33749
O         11.54127        35.21159        -1.39220
O         21.32543        35.49202        -3.13766
O         21.28102        18.04643        -1.26562
O         23.49666        36.69422        -3.08128
O         14.33145        33.75865         1.71268
O         19.38717        52.60023         2.92334
O         15.08243        18.59344         2.24049
O         24.56548        55.76942        -0.57270
O         17.49833        22.30885         1.97160
O         27.81814        23.01742         1.00381
O         13.59755        44.15959         0.42437
O         21.89462         8.90685         2.84990
O         24.68892        21.05531         1.22553
O         30.85664        36.67758        -2.08591
O         24.12292        58.74034         2.03319
O         17.49172        34.96541         0.34862
O         22.79182        20.23962        -1.94703
O         26.88991        30.57301        -1.68723
O         27.22847        13.09886         2.65517
O         26.28898        49.58814         3.14320
O         11.62224        31.46850         1.92149
O         25.26866        42.42064        -2.32645
O         25.24778        23.94583         1.00479
O         14.76348        26.64505         1.13326
O         14.24100        40.10450         0.29183
O         36.12888        31.20741         1.61165
O         16.18602        37.70097        -2.54795
O         27.74838        18.90739         1.95566
O         19.88888        20.53432        -2.15635
O         22.13733        26.13715        -2.56022
O         24.10960        50.98427         3.52229
O         18.47056        33.42312        -2.67965
O         27.72384        52.26972         3.85356
O         22.57068        22.74241        -2.36572
O         19.57300        38.70853         0.15429
O         30.50044        33.36287         1.56387
H         31.27255        32.89587         1.95217
O         16.28943        28.86537         0.74142
H         15.75774        28.23495         1.28196
O         39.49921        33.78723         2.13897
H         38.64085        34.06092         2.52783
O         35.77617        27.67979        -2.39626
H         35.81745        26.77154        -2.78125
O         11.08156        28.64815         2.43311
H         11.24900        29.50567         2.88269
O         24.13663         8.16998        -0.44328
H         24.56175         8.95598        -0.87155
O         20.73280        57.35011         2.87141
H         20.38770        56.47080         3.17069
O         15.33349        27.26697        -2.44889
H         15.81262        27.96274        -2.95884
O         31.83363        20.81332        -2.36565
H         32.69589        21.14321        -2.70015
O         22.89710        28.81848         1.14362
H         22.80224        29.73671         1.48365
O         19.19853        16.19690        -0.89666
H         19.82815        16.59703        -1.53905
O         10.35946        27.94314        -1.08036
H          9.86687        27.18918        -1.46836
O         19.89225        44.36442        -2.31007
H         19.18676        44.03146        -2.90340
O         16.16866        49.97761        -1.80128
H         16.51877        49.06088        -1.91816
O         25.10135        22.07148        -2.19719
H         24.35342        21.79306        -2.77876
O         25.53181        31.95207         1.45595
H         24.63307        31.67259         1.74999
O         16.51842        29.59172        -2.82901
H         17.22618        30.07557        -3.30562
O         25.44373        53.30443         4.17730
H         25.34468        52.50024         4.73221
O         16.53289        32.78872         1.32871
H         16.83584        33.62503         1.74718
O         28.35140        32.74721        -2.16150
H         28.30163        33.54926        -2.72285
O         29.27374        46.96399        -1.18242
H         30.09885        47.39437        -1.49015
O         29.59999        42.74857        -2.19482
H         28.86678        43.36717        -2.44372
O         31.80093        26.84406        -2.56277
H         30.98364        26.36360        -2.84887
O         24.33756        56.95570        -1.37903
H         25.03651        57.58841        -1.06018
O         22.87799        32.04731         1.20851
H         23.17362        32.99179         1.36743
O         25.67604        49.59150        -0.43042
H         25.78961        48.95569        -1.16905
O         27.18800        44.34131        -2.16494
H         26.46653        43.85426        -2.63741
O         33.11802        40.31998        -1.95410
H         33.86913        40.85152        -2.29068
O         18.99234        55.41343         2.69007
H         18.80114        54.53738         3.10780
O         15.34640        49.17216         1.66785
H         15.07896        48.34530         2.12043
O         20.28577        32.22410         0.63386
H         21.14440        32.24599         1.13104
O         27.26184        38.42492        -2.95822
H         26.44378        38.83982        -3.32996
O         19.13299        12.34471         2.96842
H         19.79106        12.84037         3.50290
O         18.83134        16.56165         2.72218
H         18.05323        16.46111         3.30899
O         20.40420        43.93524         1.28989
H         21.07762        44.29925         1.90223
O         24.12553        34.40666         0.95712
H         24.96189        34.19632         1.43416
O         13.16019        41.75826        -2.71409
H         13.97456        41.31837        -3.06962
O         20.32771        24.27475        -2.85917
H         21.03165        23.67285        -3.19849
O         21.68348        51.70596         3.81548
H         20.72627        51.59740         4.01619
O         15.47466        40.33469        -3.16196
H         15.56929        39.40236        -3.47005
O         28.05768        32.14621         1.44704
H         28.87772        32.63792         1.70718
O         35.72293        24.67055        -2.57392
H         34.89384        24.30776        -2.95370
O         24.72452        39.89695        -3.22717
H         24.85502        40.86917        -3.35955
O         31.85399        29.40701         1.50637
H         30.97073        29.68506         1.83192
O         30.41850        18.44643        -1.83550
H         31.00702        19.04870        -2.35077
O         20.56286        49.05931        -0.96316
H         21.37080        49.54762        -1.22717
O         26.86909        26.78182         1.37772
H         26.30482        26.03569         1.67995
O         21.94448        55.77840        -0.89647
H         22.60323        56.37978        -1.31480
O         11.99500        34.51151         2.19042
H         12.91469        34.50352         2.55170
O         29.31612        25.40941        -2.58828
H         28.47706        25.82704        -2.87859
O         19.48701        47.67167         2.23436
H         18.70621        47.13351         2.48071
O         23.53086         6.98490         2.95414
H         23.00486         7.60521         3.51581
O         17.02651        47.13626        -1.87058
H         17.97300        47.26547        -2.10313
O         28.06650        10.59651        -1.21759
H         28.22203         9.73010        -1.64803
O         20.95121        15.03838         3.04618
H         20.27723        15.74106         3.24103
O         26.11459         7.12266         2.53781
H         25.26690         6.87146         2.98614
O         31.98209        39.58776         1.44541
H         31.10437        39.31383         1.78517
O         24.97536         9.61404         2.85189
H         24.18232         9.42112         3.39600
O         29.13763        22.25805        -2.35230
H         29.92527        21.78022        -2.70089
O         19.12009        19.21990         2.47045
H         18.59675        19.91176         2.92832
O         27.96655        40.13453         1.12709
H         27.13764        40.59147         1.38437
O         28.36051        45.62595         2.09741
H         27.51163        45.29220         2.45413
O         12.82678        27.38496        -1.92489
H         11.93342        27.79071        -2.04145
O         18.80556        12.03341        -0.67142
H         18.07369        11.72011        -1.24283
O         25.29049        10.51598        -0.71703
H         26.11421        10.77074        -1.20350
H          4.91260        31.19516         0.07820
H          4.90876        33.63845        -0.27316
H          7.42229        27.05317         1.17647
H          6.20921        29.07590         0.58061
H          6.12773        35.79571        -0.43024
H          7.37797        37.94831        -0.63039
H         10.01824        22.77995         1.35164
H          8.75178        24.89341         1.42434
H          8.60516        40.10130        -0.76102
H          9.78682        42.22762        -0.83588
H         12.32395        18.73253         0.40218
H         11.25685        20.66479         1.07703
H         10.78974        44.35024        -1.31149
H         12.56374        46.72252        -1.51253
H         14.97615        14.30598         0.66630
H         13.90921        16.34429         0.02681
H         13.58263        48.64927        -0.42868
H         14.99976        50.84020        -0.31731
H         17.37008         9.86837         0.83667
H         16.13840        12.15352         0.60316
H         16.42857        52.87951        -0.37133
H         17.70650        54.96582         0.07127
H         19.77753         5.66287         0.54876
H         18.57013         7.74394         0.93428
H         19.71482        56.64477        -0.23213
H         20.06946        59.07407         0.10406
H         23.06074         2.49090        -0.80045
H         20.94954         3.66273        -0.18861
H         23.53051        62.23684         0.33252
H         21.44346        61.26087         0.73848
H         25.26188         3.60635        -0.48687
H         26.57852         5.50442         0.23313
H         26.80393        58.54286         0.05218
H         25.66439        61.13098         0.19899
H         27.95381         7.71996         0.58216
H         29.13959         9.83870         0.42039
H         28.97336        54.85222         2.23613
H         27.79818        56.80135         1.57292
H         30.34914        12.03871         0.34307
H         31.63413        14.12270         0.52431
H         31.53887        50.70334         1.49324
H         30.27832        52.74091         1.94502
H         32.87928        16.30886         0.47845
H         34.03176        18.47950         0.22303
H         34.06074        46.46688         0.89404
H         32.80651        48.60545         1.06912
H         35.21009        20.55873        -0.06349
H         36.46228        22.61164        -0.64477
H         36.55584        42.24209         0.38209
H         35.30408        44.35698         0.65366
H         37.70737        24.75099        -0.36618
H         39.01362        26.88600        -0.22941
H         39.03907        37.94559         0.27839
H         37.80991        40.09797         0.32962
H         40.24350        29.07157        -0.29549
H         41.43938        31.24030        -0.44853
H         41.48100        33.65568         0.01207
H         40.24298        35.83740         0.37419
