         661
 CSIRO Nanostructure Databank - Neutral Graphene Oxide Data Set
C          5.85599        31.63392         0.45738
C          5.81098        32.97951         0.42042
C          8.27792        27.36504        -0.45491
C          8.27099        28.79197        -0.35646
C          7.09257        29.50411        -0.11169
C          8.28588        31.62356         0.15578
C          7.10250        30.91368         0.15954
C          8.27917        33.05209         0.66014
C          7.05891        33.78130         0.09000
C          8.33046        35.95782         0.49294
C          6.99380        35.23125         0.59395
C          8.35058        37.30452         0.64194
C         10.70841        23.09157        -0.92372
C         10.69043        24.50901        -0.99516
C          9.49577        25.24044        -0.80820
C         10.67952        27.43257        -1.01448
C          9.44700        26.65530        -0.73394
C         10.72133        28.87374        -0.68495
C          9.52995        29.51583        -0.45002
C         10.80105        31.57368         0.14912
C          9.52283        31.02317        -0.43676
C         10.81640        33.04990         0.48391
C          9.56088        33.80974         0.41417
C         10.85425        35.88546         0.32653
C          9.58157        35.18661         0.39044
C         10.77771        37.37318         0.05390
C          9.64559        38.04890         0.83726
C         10.77668        40.23628         0.38517
C          9.60401        39.52703         0.51413
C         10.79689        41.66705         0.22043
C         13.19738        18.83574        -0.52503
C         13.19874        20.22325        -0.84541
C         11.97219        20.94923        -0.88387
C         13.15435        23.08515        -1.30104
C         11.90219        22.34563        -1.02923
C         13.14795        24.54850        -1.12514
C         11.96236        25.22052        -1.08373
C         13.25089        27.44516        -1.09806
C         11.96751        26.69848        -1.18287
C         13.20506        28.87942        -0.96594
C         12.00961        29.57395        -0.68866
C         13.29985        31.63306        -0.01924
C         12.06098        30.93338        -0.24656
C         13.29773        33.05100         0.32305
C         12.10559        33.75287         0.41317
C         13.33561        35.91011         0.30968
C         12.06649        35.20202         0.37808
C         13.29290        37.36637         0.50218
C         12.05789        38.11623         0.33329
C         13.28561        40.23244         0.41094
C         12.05480        39.49857         0.42741
C         13.25092        41.71582         0.66717
C         11.96860        42.42077         0.27764
C         13.17307        44.60337         0.21219
C         11.97580        43.83735         0.20392
C         13.23035        45.99988         0.30878
C         15.63252        14.68024         0.59171
C         15.56764        16.05164         0.40547
C         14.37392        16.75832         0.07049
C         15.69758        18.72176        -0.78165
C         14.38133        18.09894        -0.35171
C         15.68390        20.23353        -0.84025
C         14.46024        20.90374        -0.98198
C         15.72260        23.11528        -1.07955
C         14.46693        22.34701        -1.27184
C         15.69483        24.48910        -1.11285
C         14.43136        25.26835        -0.81050
C         15.71819        27.47556        -1.47063
C         14.43309        26.73249        -1.18442
C         15.71513        28.81420        -0.69363
C         14.49039        29.66618        -1.05780
C         15.81183        31.61608        -0.10621
C         14.49983        30.97128        -0.29857
C         15.88314        33.06401         0.30712
C         14.58649        33.80469         0.66324
C         15.79109        35.99591        -0.02563
C         14.55557        35.26256         0.24014
C         15.80639        37.41774        -0.05633
C         14.60630        38.13644         0.38989
C         15.73050        40.28471        -0.01316
C         14.50545        39.58295         0.21152
C         15.67614        41.71806         0.01661
C         14.49006        42.40271         0.17139
C         15.73083        44.62934         0.11445
C         14.43977        43.86295         0.01024
C         15.71565        46.05683         0.41912
C         14.46277        46.74815         0.41333
C         15.72436        48.84498         0.76774
C         14.49614        48.14737         0.56924
C         15.77709        50.25092         0.86478
C         18.22864        10.45406         0.81428
C         18.16025        11.84551         0.67264
C         16.94778        12.55659         0.70128
C         18.09172        14.71738         0.73550
C         16.90211        13.98753         0.68859
C         18.05875        16.17629         1.12608
C         16.79350        16.86642         0.63091
C         18.16597        18.91090        -0.12676
C         16.85737        18.23359         0.05652
C         18.15765        20.22729        -0.55964
C         16.92826        20.91822        -0.86881
C         18.18381        23.02608        -1.08618
C         16.96843        22.36360        -1.01977
C         18.25273        24.46910        -0.91031
C         16.94220        25.24452        -0.93257
C         18.17652        27.34843        -1.21295
C         16.98368        26.69787        -1.18027
C         18.27327        28.78543        -0.76890
C         16.99962        29.59208        -0.86328
C         18.38493        31.59692        -0.42787
C         17.02953        30.92491        -0.61364
C         18.34928        33.12781        -0.47817
C         17.11413        33.86389        -0.06564
C         18.12569        36.03647        -0.80739
C         16.98588        35.31595        -0.37433
C         18.15575        37.45684        -0.76139
C         16.96958        38.15513        -0.38840
C         18.14163        40.36241        -0.53064
C         16.94630        39.61183        -0.29347
C         18.21124        41.74173        -0.25289
C         16.97209        42.40340         0.19450
C         18.23931        44.60078         0.37350
C         16.97189        43.86968         0.41224
C         18.20270        45.97478         0.63394
C         16.94416        46.70382         0.66776
C         18.18996        48.78105         1.15773
C         16.95711        48.10865         0.86448
C         18.20355        50.16569         1.34290
C         16.99660        50.93651         1.14953
C         18.22840        53.10228         1.68756
C         17.02453        52.33286         1.23308
C         18.35756        54.46175         1.04384
C         20.70625         6.21412         1.26425
C         20.69254         7.62919         1.18833
C         19.47667         8.34362         1.06156
C         20.72059        10.43289         0.80068
C         19.46667         9.73742         0.86615
C         20.73352        11.84501         0.36548
C         19.40896        12.57395         0.32514
C         20.58140        14.69353         1.14822
C         19.40965        14.10430         0.34270
C         20.59142        16.22085         1.10542
C         19.33997        16.90124         0.74204
C         20.66607        18.82199         0.01509
C         19.38315        18.20243         0.24522
C         20.67983        20.15002        -0.64235
C         19.44574        21.01918        -0.45464
C         20.71952        23.07209        -1.21214
C         19.44581        22.25845        -1.37334
C         20.73691        24.48053        -1.24663
C         19.50250        25.17881        -1.20024
C         20.76623        27.39589        -1.41486
C         19.44603        26.61030        -1.39386
C         20.71607        28.87236        -1.27485
C         19.52156        29.51725        -1.18061
C         20.69914        31.74527        -1.43010
C         19.38383        30.99411        -1.43542
C         20.67310        33.13199        -1.42836
C         19.29390        33.79502        -1.47355
C         20.60495        36.07498        -1.49403
C         19.30663        35.32188        -1.36246
C         20.58237        37.54687        -1.27552
C         19.39383        38.18868        -1.03850
C         20.56767        40.49327        -1.34461
C         19.32889        39.68010        -1.09427
C         20.61549        42.01229        -1.07639
C         19.39593        42.51769        -0.33139
C         20.69297        44.54374         0.28519
C         19.44045        43.86730         0.11165
C         20.67138        45.81797         1.09253
C         19.42663        46.65873         0.92013
C         20.67856        48.69218         1.49897
C         19.41766        48.00403         1.24905
C         20.69508        50.05379         1.68562
C         19.42724        50.84009         1.92508
C         20.70258        52.98237         1.56516
C         19.52418        52.31763         1.58168
C         20.72470        54.48913         1.75809
C         19.53705        55.14003         1.08874
C         20.84266        57.20863         0.73833
C         19.66507        56.51297         0.65835
C         20.83809        58.68503         0.41107
C         23.14020         3.37970         1.51396
C         21.93318         4.07068         1.41322
C         23.15782         6.20307         1.41978
C         21.91477         5.49135         1.36281
C         23.16919         7.62804         1.38247
C         21.93020         8.35372         1.24299
C         23.17491        10.52483         1.18680
C         21.92644         9.76655         1.07569
C         23.22364        11.86364         0.94351
C         22.03901        12.65439         0.39753
C         23.11222        14.78091         1.26552
C         21.87611        13.90272         1.31478
C         23.10522        16.14417         1.11936
C         21.88184        16.87840         0.87687
C         23.17529        18.76009        -0.14939
C         21.87767        18.15673         0.27781
C         23.24095        20.21490        -0.43564
C         21.98092        20.85771        -0.87977
C         23.22582        23.13208        -0.78728
C         21.97258        22.33677        -1.14655
C         23.13283        24.57887        -0.63497
C         21.98154        25.24693        -1.04043
C         23.17673        27.44255        -0.87717
C         21.98287        26.68487        -1.06224
C         23.20119        28.86391        -1.14790
C         21.97050        29.60318        -1.35831
C         23.18222        31.75966        -1.60234
C         21.93287        30.99989        -1.45140
C         23.18167        33.21153        -1.37031
C         21.89831        33.92109        -1.40047
C         23.18896        36.05869        -1.51013
C         21.87285        35.30799        -1.42386
C         23.05051        37.53304        -1.12172
C         21.84639        38.25415        -1.75158
C         23.13474        40.49345        -1.14417
C         21.88016        39.77660        -1.52556
C         23.11310        41.89630        -0.66611
C         21.91752        42.56900        -0.51682
C         23.17044        44.59131         0.26576
C         21.90951        43.91565         0.00682
C         23.18817        45.91200         0.77357
C         21.94632        46.61554         1.01945
C         23.18597        48.59374         1.90711
C         21.92948        47.94342         1.37896
C         23.22061        50.06507         1.67140
C         21.95778        50.80125         1.34609
C         23.25507        52.96666         1.40015
C         21.97780        52.23939         1.87699
C         23.23252        54.45542         1.66798
C         22.06144        55.16891         1.50629
C         23.30494        57.23509         0.91831
C         22.08446        56.57069         1.14550
C         23.36056        58.50585         0.24161
C         22.16924        59.21110        -0.06189
C         23.47313        60.99468        -1.08508
C         22.23257        60.44306        -0.71236
C         24.35391         4.06352         1.58023
C         25.60654         6.20103         1.62665
C         24.38733         5.48417         1.54248
C         25.62581         7.60721         1.61399
C         24.39244         8.31788         1.50727
C         25.69698        10.44711         1.10910
C         24.40621         9.80448         1.70810
C         25.70129        11.88973         1.62900
C         24.52363        12.65709         1.03267
C         25.63333        14.81226         1.81519
C         24.35699        14.05579         1.61100
C         25.67815        16.24239         1.46305
C         24.35929        16.98212         1.32675
C         25.67498        18.92196         0.38294
C         24.44239        18.10681         0.31267
C         25.63782        20.26546         0.16495
C         24.39089        20.92990        -0.20374
C         25.63156        23.17007        -0.32789
C         24.34037        22.43530        -0.04458
C         25.60619        24.52748        -0.28006
C         24.31231        25.31537        -0.04211
C         25.58141        27.48928        -0.44260
C         24.38531        26.76951        -0.51600
C         25.63066        28.88849        -0.73511
C         24.42839        29.55987        -1.07937
C         25.69192        31.76223        -1.00751
C         24.49663        30.99629        -1.40494
C         25.63781        33.16689        -0.90608
C         24.38233        33.86075        -1.10405
C         25.56085        36.04640        -0.41075
C         24.30649        35.31240        -0.79334
C         25.57035        37.55015        -0.43696
C         24.28808        38.27723        -0.72623
C         25.57376        40.42858        -0.90476
C         24.38230        39.73817        -0.91708
C         25.57750        41.86799        -0.80874
C         24.38784        42.56820        -0.52743
C         25.62293        44.64224         0.05304
C         24.40012        43.94802        -0.09837
C         25.65902        45.93242         0.64608
C         24.43555        46.59878         0.97466
C         25.70426        48.60168         1.64336
C         24.46894        47.92489         1.47094
C         25.74408        50.02877         1.89677
C         24.46662        50.75475         1.98235
C         25.78238        52.94997         1.72374
C         24.49176        52.27342         1.96099
C         25.79006        54.34222         1.57317
C         24.53802        55.11817         1.71319
C         25.85347        57.14626         0.80934
C         24.57268        56.61486         1.31932
C         25.83793        58.37880         0.13867
C         24.62625        59.07178        -0.12668
C         24.64950        60.32416        -0.79838
C         26.87162         8.32773         1.70953
C         28.16560        10.41920         1.54153
C         26.94965         9.70455         1.53904
C         28.26359        11.83657         1.62663
C         26.99958        12.60650         1.93433
C         28.02374        14.88585         2.10802
C         26.92803        14.09854         1.88243
C         28.14982        16.24707         1.61543
C         26.88135        16.87961         1.27039
C         28.20506        18.96411         0.63119
C         26.95664        18.13957         0.44277
C         28.18537        20.31180         0.32318
C         26.88279        21.10975         0.37250
C         28.15427        23.08546        -0.57999
C         26.85491        22.30192        -0.59929
C         28.13813        24.57501        -0.39187
C         26.85986        25.29240        -0.09740
C         28.11204        27.53367        -0.30079
C         26.84243        26.80215        -0.08908
C         28.11898        28.87785        -0.58412
C         26.87768        29.60949        -0.72551
C         28.13742        31.76501        -0.66807
C         26.89932        31.02612        -0.80284
C         28.08725        33.17430        -0.55715
C         26.86162        33.90638        -0.61984
C         28.05144        36.10014        -0.61742
C         26.85133        35.33246        -0.51296
C         28.10779        37.49777        -0.72301
C         26.85938        38.28312        -0.59636
C         28.13120        40.42858        -0.89036
C         26.85532        39.67463        -1.19870
C         28.12622        41.81594        -0.87672
C         26.86098        42.58387        -0.92188
C         28.14590        44.66175         0.01395
C         26.87872        44.07080        -0.46054
C         28.14810        45.84308         0.71957
C         26.90917        46.56413         0.94651
C         28.19882        48.52308         1.80420
C         26.91975        47.87545         1.45939
C         28.21793        50.04040         2.01571
C         26.93877        50.76122         1.89580
C         28.23739        52.87909         1.60773
C         26.97923        52.18997         1.75741
C         28.23107        54.27552         1.39515
C         27.03269        55.02669         1.35754
C         27.03567        56.40233         0.98406
C         29.50239        12.40553         1.28208
C         30.69225        14.69058         1.03063
C         29.86649        13.76162         1.58929
C         30.71604        16.10843         1.61952
C         29.38582        16.84976         1.35130
C         30.65928        18.84715         0.60456
C         29.44117        18.21616         0.84999
C         30.68005        20.21327         0.05206
C         29.42479        21.02177         0.04747
C         30.66331        23.12721        -0.54216
C         29.42059        22.34158        -0.36460
C         30.67457        24.57179        -0.29756
C         29.40447        25.28848        -0.05690
C         30.64686        27.47432        -0.44118
C         29.37399        26.78754        -0.09034
C         30.66130        28.93848        -0.42201
C         29.40818        29.59974        -0.93131
C         30.63125        31.74232        -0.61210
C         29.38715        31.07573        -0.64826
C         30.65302        33.17813        -0.61462
C         29.36697        33.89116        -0.40168
C         30.54439        36.07552        -1.04608
C         29.33655        35.38156        -0.52526
C         30.54861        37.53503        -1.04235
C         29.35224        38.22783        -0.87401
C         30.60118        40.38300        -0.80641
C         29.36011        39.68906        -0.87500
C         30.65222        41.77413        -0.69137
C         29.40531        42.54190        -0.82972
C         30.68574        44.55863         0.16167
C         29.41656        44.00955        -0.36010
C         30.69341        45.80265         0.77598
C         29.42505        46.37397         1.34552
C         30.67702        48.57375         1.53410
C         29.45749        47.86887         1.45821
C         30.67373        50.00344         1.65656
C         29.49097        50.74835         1.76025
C         29.45810        52.14852         1.60636
C         31.93198        16.83879         1.11856
C         33.19832        18.83503         0.50902
C         31.93112        18.15254         0.73625
C         33.30904        20.17635         0.24824
C         32.03218        20.89820        -0.09448
C         32.96592        23.22747         0.42887
C         32.00094        22.38755        -0.23775
C         33.08168        24.57526         0.19621
C         31.88069        25.25405        -0.17392
C         33.18454        27.44404        -0.07777
C         31.92900        26.71653        -0.36215
C         33.14164        28.88970        -0.26157
C         31.88690        29.59780        -0.45376
C         33.11491        31.72815        -0.72225
C         31.88236        31.03319        -0.61471
C         33.11879        33.18346        -0.75804
C         31.84722        33.87312        -0.70468
C         33.09641        36.10873        -0.88007
C         31.85227        35.32102        -1.02931
C         33.09510        37.45138        -1.06029
C         31.83435        38.23228        -1.41966
C         33.15111        40.36753        -1.01157
C         31.87471        39.57898        -0.64641
C         33.13166        41.79973        -0.54881
C         31.89909        42.48026        -0.45910
C         33.15100        44.51153         0.20191
C         31.90691        43.85659        -0.07573
C         33.14327        45.84325         0.67046
C         31.93165        46.50388         0.97876
C         31.90615        47.86844         1.36385
C         34.60864        20.82325         0.02012
C         35.77864        23.13412         0.02203
C         34.83619        22.13317         0.41138
C         35.63899        24.53781         0.18673
C         34.35256        25.27866         0.64902
C         35.61278        27.48301         0.34268
C         34.33374        26.75509         0.26063
C         35.61256        28.94895         0.00738
C         34.33383        29.62378        -0.30972
C         35.61002        31.69645        -0.88888
C         34.33340        31.00388        -0.65002
C         35.58695        33.23248        -0.89463
C         34.30385        33.90880        -0.72593
C         35.61720        36.08060        -0.67168
C         34.31526        35.37566        -0.36085
C         35.64122        37.45535        -0.85293
C         34.39036        38.22106        -1.24044
C         35.68762        40.33443        -0.82141
C         34.39509        39.60199        -0.51966
C         35.62591        41.83471        -1.00321
C         34.36584        42.49587        -0.47568
C         34.37222        43.82614        -0.07682
C         36.80093        25.31369        -0.01387
C         38.07714        27.41790         0.00580
C         36.87059        26.72301         0.11353
C         38.12523        28.85751        -0.03826
C         36.88161        29.53614        -0.61564
C         38.00739        31.76511        -0.25379
C         36.87333        31.04463        -0.48550
C         38.02601        33.21669        -0.37301
C         36.84080        33.93643        -0.56571
C         38.09021        36.05966        -0.54578
C         36.84459        35.36007        -0.56943
C         38.07651        37.47884        -0.65059
C         36.88004        38.17157        -0.83045
C         36.84385        39.63421        -0.92877
C         39.22714        29.59912         0.27456
C         40.49466        31.79170        -0.08626
C         39.22323        31.10594         0.36152
C         40.50446        33.12342        -0.30867
C         39.27691        33.91869        -0.32903
C         39.29642        35.30628        -0.44316
O         20.13214        26.98167        -2.66822
O         23.99662        31.32954        -2.74408
O         24.59837        35.55824         0.60314
O         33.84947        22.61579         1.31962
O         26.24711        38.15973         0.72315
O         31.31081        27.02055        -1.69047
O         35.66063        32.44752        -2.13452
O         34.48324        38.48794        -2.62709
O         26.10938        12.05260         2.98299
O         24.77208        14.37488         2.97026
O         19.74004        35.81685        -2.68131
O         24.62284        56.18213         2.71284
O         15.16328        44.30347        -1.20408
O         31.39219        20.26578        -1.24031
O         23.22524        37.89647         0.26110
O         29.11752        14.24430         2.69720
O         20.00189        12.03061        -0.89510
O         36.86600        29.25815        -1.98178
O         13.81289        22.67044        -2.56156
O         16.96442        42.96586         1.58254
O         23.94453        17.85156        -1.02656
O         22.99088        22.68586        -2.15316
O         26.83930        43.69356        -1.87108
O         19.65862        40.19785        -2.45687
O         11.20587        27.15222        -2.37073
O         14.08019        37.73283         1.69294
O         10.74221        31.99571         1.54477
O         16.51020        18.05434         1.47531
O         28.24086        49.12723         3.15621
O         29.50921        43.66717        -1.77336
O         21.29509        20.12262        -1.97367
O         25.66506        10.44847        -0.27925
O         18.27873        33.69945         0.85136
O         29.41842        26.05558         1.19063
O         22.68366        40.40163        -2.58413
O         24.39388        51.61694         3.23108
O         29.48798        34.76176         0.80181
O         17.61131        24.93096         0.35170
O         31.62346        22.78058        -1.58253
O         20.36103        15.42489         2.36086
O         26.81752        26.02151         1.17665
O         35.71537        28.52392         1.39111
O         31.11956        35.53836        -2.28970
O         16.13201        32.03472         1.31169
O         28.20017        24.00608        -1.73779
O         20.45881        59.41481         1.60281
H         21.19995        59.35552         2.24056
O         24.92108        12.90237        -0.35420
H         25.23570        11.99542        -0.68626
O         21.84238        50.87734        -0.14359
H         21.90709        49.96043        -0.48889
O         21.82108        13.33000         2.64706
H         21.57699        14.05637         3.26508
O         14.43995        25.30047         0.67517
H         15.27383        25.73532         0.96212
O         18.76866        31.05381        -2.74638
H         19.42288        30.74599        -3.40745
O         34.22123        35.41778         1.11089
H         33.35768        35.03076         1.37011
O         19.52083        21.53757         0.90149
H         19.19027        20.85513         1.52251
O         20.52209        42.65152        -2.38740
H         19.99780        42.04305        -2.95891
O         31.88110        39.18776         0.74609
H         32.16439        39.95030         1.29267
O          8.12965        32.98958         2.11225
H          8.95463        32.56862         2.45305
O         19.37568        21.83579        -2.75358
H         20.15031        21.24446        -2.92571
O         18.87190        31.23784         0.88955
H         18.42404        31.85479         1.52072
O         23.11284        48.40587         3.38081
H         22.73274        49.22505         3.76868
O         18.42154        28.59808         0.70228
H         18.65076        29.49837         1.06820
O         26.79352        21.69226         1.71036
H         26.87401        20.96825         2.36737
O         17.96424        16.20114         2.58179
H         17.51293        17.04577         2.81438
O         24.16531        17.65500         2.61307
H         24.14572        16.95992         3.30665
O         20.51241        54.65643         3.22299
H         20.59323        55.61545         3.41998
O         15.61739        28.48242         0.71012
H         16.54055        28.36159         1.04842
O         19.19761        50.81855         3.37602
H         18.59140        51.57574         3.58090
O         20.63367        45.34368         2.49110
H         20.76554        46.12489         3.07114
O         21.99193        52.15182         3.31627
H         21.66332        53.00570         3.67789
O         26.70444        21.73977        -1.91721
H         26.94964        22.43680        -2.56544
O         27.11121        17.61488        -0.92610
H         26.98323        18.35802        -1.55466
O         34.38264        25.26401         2.10075
H         34.34807        24.31908         2.37425
O          9.55423        31.45683        -1.84372
H          8.67436        31.26849        -2.23432
O         39.13658        31.37115         1.80928
H         39.17754        32.34415         1.92812
O         15.77189        27.70034        -2.90064
H         15.27388        28.53102        -3.10495
O         21.88053        38.04049        -3.18397
H         22.15631        38.89196        -3.59914
O         14.63947        30.05763        -2.47775
H         13.77760        30.41744        -2.77900
O         18.68917        33.53039        -2.76172
H         19.10933        34.15054        -3.40186
O         13.30359        41.86448         2.13445
H         14.07893        41.35725         2.45872
O         22.31395        13.09670        -0.93752
H         23.30178        13.15068        -1.04144
O          9.99497        37.92925         2.24583
H          9.26098        38.30179         2.77690
O         24.06550        22.61625         1.37396
H         24.90842        22.43982         1.85548
O         18.04161        53.33273         3.14090
H         18.82591        53.86787         3.43113
O         33.22042        40.48864        -2.44255
H         34.05518        40.96695        -2.67498
O         14.57453        33.89608         2.11942
H         14.94219        33.04711         2.45849
O         29.38900        45.88557         2.74649
H         28.84617        46.51522         3.26987
O         30.92942        16.06038         3.05615
H         30.28233        15.41195         3.42437
O          7.22345        33.80152        -1.34906
H          6.41419        34.18506        -1.74601
O         35.61236        42.07555        -2.43469
H         36.30881        41.51936        -2.84384
O         34.34610        39.45302         0.91028
H         35.09619        38.88107         1.17951
O         10.45002        37.52272        -1.35825
H         11.10214        37.01457        -1.88367
O         23.61491        36.04217        -2.89957
H         22.93966        36.55250        -3.41517
O         15.96067        18.25269        -2.13656
H         15.29329        18.65243        -2.73315
O         26.85966        39.45297        -2.64034
H         26.95034        40.32042        -3.08920
O         19.64918        14.55951        -1.01812
H         20.08551        13.80709        -1.49488
O         24.12091        25.38729         1.39952
H         24.97729        25.70126         1.77871
O         24.48051        10.00321         3.14507
H         23.65815         9.65433         3.54717
O         31.79999        38.40987        -2.83918
H         32.75581        38.48097        -3.12849
O          6.55568        35.24739         1.95808
H          7.08931        34.57243         2.44124
O         23.42473        52.93551        -0.04549
H         22.83140        52.24485        -0.43238
O         29.52938        29.48823        -2.39971
H         30.00978        28.65549        -2.60754
H          4.94696        31.04439         0.65106
H          4.86443        33.51543         0.58804
H          7.33515        26.81984        -0.29623
H          6.13755        28.96148        -0.05300
H          6.22723        35.79327        -0.00519
H          7.40208        37.85019         0.77424
H          9.76024        22.55877        -0.75311
H          8.55916        24.68087        -0.65935
H          8.63732        40.05582         0.51634
H          9.83458        42.18263         0.07271
H         12.23285        18.34891        -0.31235
H         11.03823        20.38861        -0.72403
H         11.01088        44.36540         0.14149
H         12.28684        46.56138         0.39208
H         14.72207        14.07334         0.47602
H         13.41018        16.23218         0.15702
H         13.55831        48.72176         0.54228
H         14.85342        50.83741         0.75111
H         17.29701         9.88913         0.96724
H         16.00408        12.00007         0.79933
H         16.08999        52.89300         1.07518
H         17.45932        54.94218         0.62559
H         19.75276         5.66711         1.21828
H         18.52476         7.79384         1.08622
H         18.76084        57.02313         0.29196
H         20.04519        58.89866        -0.34975
H         23.13456         2.28118         1.54703
H         20.98277         3.51973         1.37229
H         23.50291        61.96356        -1.60236
H         21.30358        60.98822        -0.93136
H         25.29760         3.50634         1.66651
H         26.55315         5.64581         1.70424
H         26.78538        58.80884        -0.21907
H         25.61889        60.75621        -1.08534
H         27.77765         7.75831         1.97432
H         29.10797         9.85147         1.46408
H         29.18913        54.79374         1.23921
H         27.99208        56.85870         0.68689
H         30.25236        11.74879         0.81386
H         31.28334        14.46430         0.13250
H         31.63059        50.53635         1.55231
H         30.40153        52.69096         1.44408
H         32.89234        16.31217         1.22868
H         34.11153        18.24167         0.66780
H         34.09794        46.37028         0.81557
H         32.85410        48.41893         1.44973
H         35.38342        20.25338        -0.51518
H         36.70650        22.78977        -0.46416
H         36.53899        42.32692        -0.56061
H         35.32422        44.37033         0.01451
H         37.73787        24.78066        -0.24563
H         39.01173        26.84538        -0.11263
H         39.02703        38.03153        -0.60130
H         37.79986        40.16437        -1.07498
H         40.09798        29.09540         0.72841
H         41.43496        31.22001        -0.09287
H         41.45091        33.64169        -0.52812
H         40.26058        35.83653        -0.46613
