         272
 CSIRO Nanostructure Databank - Neutral Graphene Oxide Data Set
C        -11.34884         0.68368         0.45841
C        -10.26338         1.53409        -0.10360
C         -9.00413         0.77060        -0.49492
C         -7.68402         1.47631        -0.37910
C         -6.37952         0.73697        -0.55091
C         -5.14711         1.33446         0.09792
C         -3.83000         0.63144        -0.01987
C         -2.53888         1.37249         0.29451
C         -1.22738         0.76823        -0.12415
C          0.04747         1.53443         0.08550
C          1.34429         0.82349         0.26383
C          2.51363         1.52826         0.38708
C          3.78845         0.86639        -0.00165
C          5.07278         1.65823        -0.02100
C          6.35251         0.84941        -0.07761
C          7.65822         1.53360         0.14314
C          8.91575         0.97736        -0.47715
C         10.28132         1.60230        -0.08921
C         11.05861         0.55911         0.69333
C        -10.26649         2.99020         0.28591
C         -9.41497         3.95394        -0.07530
C         -7.51921         2.65722         0.56907
C         -6.40731         3.55869         0.06360
C         -5.14449         2.81651         0.40888
C         -3.88135         3.56192         0.70665
C         -2.56648         2.81345         0.71393
C         -1.29985         3.62291         0.81174
C          0.03719         3.06647         0.26771
C          1.24822         3.67097         1.00341
C          2.55249         2.93402         0.89288
C          3.83954         3.72299         0.98553
C          5.09163         3.09276         0.42039
C          6.39372         3.73349         0.81599
C          7.65707         2.97797         0.58990
C          8.90870         3.73076         0.31422
C         10.15790         2.95799         0.66457
C         -8.88695         5.11251        -0.45839
C         -7.64975         5.85013         0.07925
C         -6.38489         5.01821        -0.20332
C         -5.01021         5.70476        -0.30100
C         -3.91122         5.07233         0.58240
C         -2.65849         5.86954         0.81535
C         -1.35942         5.11565         0.97116
C         -0.06983         5.77082         0.52014
C          1.22174         5.18403         1.05578
C          2.50545         6.00509         1.06588
C          3.82594         5.24582         1.10776
C          5.11120         6.06744         0.76512
C          6.50735         5.28135         0.86089
C          7.54353         5.73349        -0.18763
C          8.82665         5.01154        -0.12246
C         -7.48906         7.23904        -0.52899
C         -6.30313         7.90984        -0.48394
C         -5.07456         7.22397         0.09681
C         -3.74107         7.91839        -0.28444
C         -2.58161         7.38612         0.56370
C         -1.40803         7.90225        -0.28042
C         -0.10225         7.14575        -0.11342
C          1.15514         7.84192        -0.15870
C          2.46108         7.40970         0.43469
C          3.63566         7.68846        -0.52962
C          4.89725         6.90177        -0.49380
C          6.11796         7.67114        -1.01868
C          7.38241         6.84605        -0.94096
C         -6.18285         9.33978        -0.71727
C         -5.03744        10.05387        -0.49585
C         -3.76778         9.42729        -0.20483
C         -2.57570        10.09959        -0.04982
C         -1.29499         9.39987        -0.04845
C         -0.07786        10.01688         0.01741
C          1.19086         9.31422        -0.45027
C          2.54542         9.65803         0.23812
C          3.74071         9.23104        -0.65156
C          5.06709         9.68157        -0.04883
C          6.18764         8.97291        -0.23359
C        -11.33710        -0.66719         0.50179
C        -10.26190        -1.51545        -0.06899
C         -9.00522        -0.74331        -0.53055
C         -7.69563        -1.50517        -0.57879
C         -6.39546        -0.76983        -0.68319
C         -5.07956        -1.51870        -0.54995
C         -3.78594        -0.76344        -0.58033
C         -2.47118        -1.49004        -0.45890
C         -1.20159        -0.72597        -0.28633
C          0.05248        -1.43970         0.10083
C          1.32480        -0.67722         0.32426
C          2.64905        -1.45686         0.38663
C          3.82415        -0.62834        -0.13570
C          5.15530        -1.33386        -0.23993
C          6.31155        -0.51036        -0.73645
C          7.59552        -1.22081        -1.04573
C          8.90133        -0.45110        -0.95040
C         10.22904        -1.22511        -0.87249
C         11.04402        -0.72594         0.31687
C        -10.08902        -2.91238         0.29823
C         -8.99137        -3.73321        -0.34820
C         -7.68867        -2.93306        -0.07140
C         -6.39358        -3.61385         0.26285
C         -5.05029        -2.84329         0.23875
C         -3.81917        -3.68295        -0.09798
C         -2.50987        -2.98096        -0.29882
C         -1.20158        -3.67269         0.14463
C          0.04377        -2.89158        -0.29660
C          1.33737        -3.60988        -0.48027
C          2.65255        -2.79778        -0.46376
C          3.90466        -3.57664        -0.07273
C          5.18678        -2.82193        -0.34369
C          6.36300        -3.53206        -0.94834
C          7.63254        -2.74778        -1.11907
C          8.92314        -3.44835        -0.84840
C         10.06335        -2.73238        -0.74713
C         -8.91893        -5.17537         0.23325
C         -7.59353        -5.89588        -0.00240
C         -6.36288        -5.12407         0.36527
C         -5.05860        -5.84378         0.49165
C         -3.72435        -5.08717         0.50031
C         -2.53232        -5.85867        -0.10428
C         -1.22644        -5.09200        -0.45745
C          0.06176        -5.90142        -0.22956
C          1.32830        -5.08146        -0.11574
C          2.60634        -5.81816         0.12403
C          3.92409        -5.05850         0.00249
C          5.09621        -5.81463        -0.58963
C          6.41537        -5.04649        -0.82448
C          7.71340        -5.78358        -0.67708
C          9.01003        -4.96983        -0.54770
C         -7.52555        -7.22808        -0.25461
C         -6.23940        -7.98409        -0.35094
C         -4.99407        -7.29028         0.09206
C         -3.76522        -8.07310         0.48207
C         -2.48999        -7.31443         0.25711
C         -1.22726        -7.78642         0.91760
C          0.06903        -7.30507         0.34535
C          1.33324        -8.05250         0.70563
C          2.59717        -7.33763         0.28273
C          3.48991        -8.31459        -0.43597
C          5.41388        -6.99434         0.35849
C          6.52755        -7.90914        -0.02454
C          7.69041        -7.25851        -0.33937
C         -6.15598        -9.47345        -0.41582
C         -4.98446       -10.14319        -0.34643
C         -3.68624        -9.52305         0.07140
C         -2.37788        -9.96016        -0.54798
C         -1.13853        -9.96423        -0.03328
C          0.11232       -10.36530         0.19896
C          1.27347        -9.59982         0.88220
C          2.67233       -10.22728         0.75845
C          3.78498        -9.56123         0.33093
C          5.17004       -10.03835         0.38807
C          6.33755        -9.34472         0.19362
O         -9.94949        -1.25372        -1.49774
O          7.06668         0.69692         1.19122
O         -3.63864         5.64645         1.87681
O         -0.53881         1.30910        -1.27936
O          7.08687         3.11967         1.93539
O         -6.54752         4.05109        -1.29702
O         -1.84710         7.70799        -1.66816
O         -5.83867        -5.55971         1.69048
O         -5.25164         7.29931         1.48603
O          4.95268        -7.03166         1.48410
O         -4.76069         3.11170         1.77645
O         -3.32818         7.61220        -1.65374
O          2.57926         8.62856         1.30445
O         -1.63863        -1.11418        -1.61496
O         -9.90258         1.31146        -1.49803
O          3.21331         5.79300         2.30064
O          4.09011        -4.25880         1.19792
O          8.87548         0.66289        -1.89749
O          6.82752        -3.16028        -2.27209
O         -2.63253        -6.86851        -1.13918
O         -5.29959        -7.40035        -1.33649
O         -7.86117         2.57934         1.73518
O          3.56122         0.17328        -1.30061
O          0.07642        -7.05611        -1.10637
O          3.33771         3.00438         2.13727
O         -3.25972        -3.58713        -1.40838
O          3.68755        -8.28014        -1.63941
O          3.88633         6.65363        -1.52304
O         -7.26392        -3.03490         1.31895
O         -1.27831        -8.22272         2.06769
O         -1.26839         4.26568         2.12176
O          5.56502        -2.12288         0.90510
O         -4.39821        -1.23366        -1.81346
O          0.46611        -1.13128         1.45484
O          0.53117        -3.20284        -1.62206
O          1.84840        -5.23159         1.23058
O          1.06120         4.36930         2.24290
O         -4.67000         0.53751         1.20129
O         -7.06983        -1.29010        -1.87293
O          2.28819        -7.59814         1.68334
O         -3.74990        -9.10624         1.48051
O          7.12220         5.64484         2.04927
O          7.09838        -5.60415        -2.00051
O         -6.92366         1.53058        -1.62287
O         -2.50901         1.74314         1.70269
O         -0.05139         5.90505        -0.91957
O          6.72786        -0.65721        -2.09827
O          5.02426         2.76157        -0.99844
O          0.22992         3.59703        -1.06080
H         -0.17475         2.98496        -1.71980
O         -1.24772        -4.90460        -1.87750
H         -1.38076        -5.78786        -2.28838
O          9.99094        -5.56126        -1.39982
H          9.63753        -5.54357        -2.31415
O          0.96471        -9.81174         2.27974
H          0.15420        -9.28815         2.50284
O          3.67256         9.73707        -1.97874
H          4.46026         9.37105        -2.45203
O          4.63699        -6.17148        -1.89471
H          5.42405        -6.37834        -2.45118
O         -4.79305        -2.44189         1.60616
H         -5.65180        -2.22061         2.03599
O         -3.37310        -4.97109         1.90128
H         -4.21066        -4.82504         2.40592
O          5.87694         8.02170        -2.40202
H          5.32428         7.30476        -2.79008
O         -4.55407         5.53969        -1.64305
H         -5.20191         4.97592        -2.12918
O         -1.09309        -3.68047         1.56739
H         -1.89477        -4.08964         1.98163
O          2.92578        -2.43075        -1.82569
H          2.07081        -2.37189        -2.31461
O         -7.74110         6.01411         1.50011
H         -6.92720         6.51896         1.78391
O         10.99130        -0.92903        -2.06936
H         10.38259        -0.99070        -2.83618
O         -2.55885         8.00808         1.84375
H         -3.43373         7.79266         2.25882
O         10.10660         2.69781         2.07481
H          9.28510         3.08173         2.45129
O         -9.15642        -3.84355        -1.76301
H         -9.42545        -2.95770        -2.11276
O          5.20157         7.10244         1.74720
H          5.91968         6.80700         2.37841
O         11.01320         1.88519        -1.29088
H         11.08670         1.03948        -1.79798
O         -9.12925        -5.12078         1.64665
H         -8.35922        -4.66268         2.05320
O          2.93706        -1.74754         1.74701
H          2.10490        -2.00439         2.20359
O          1.20125         9.47677        -1.87937
H          1.04969        10.41911        -2.09713
H         11.65518        -1.46636         0.85608
H         11.67377         0.88437         1.54498
H         11.07390         3.56376         0.43228
H          9.74027         5.56364        -0.39527
H          8.19941         7.15726        -1.61195
H          7.15218         9.31457         0.16838
H          5.08803        10.63807         0.49552
H          2.62456        10.66359         0.70176
H         -0.02745        11.11068         0.14554
H         -2.56464        11.20021        -0.01870
H         -5.06133        11.14939        -0.60118
H         -7.10035         9.87839        -1.00160
H         -8.39734         7.76811        -0.86072
H         -9.34022         5.57403        -1.35836
H        -11.06795         3.27322         0.99497
H        -12.18816         1.21124         0.93776
H        -12.16559        -1.19014         1.00269
H        -10.56562        -3.29665         1.21314
H         -9.75218        -5.77269        -0.20811
H         -8.45752        -7.78974        -0.42603
H         -7.08145       -10.02466        -0.64255
H         -4.98848       -11.23287        -0.50591
H         -2.44517        -9.99538        -1.65533
H          0.23583       -11.46158         0.31833
H          2.78164       -11.20476         1.25805
H          5.28237       -11.11124         0.62046
H          7.26610        -9.93933         0.22472
H          8.62520        -7.81729        -0.51179
H          9.38693        -5.07895         0.50408
H         10.99516        -3.27991        -0.52946
