         280
 CSIRO Nanostructure Databank - Neutral Graphene Oxide Data Set
C         30.36247        31.57551         0.02531
C         30.39780        32.84364         0.12482
C         30.36075        36.02371         0.65319
C         30.41994        37.27016         0.83315
C         30.69356        40.35694         1.70733
C         30.80206        41.43519         2.30538
C         32.84418        28.81561         0.33791
C         31.72660        29.36666         0.19610
C         32.79521        31.51903         0.02591
C         31.47656        30.74463         0.02874
C         32.74436        33.04431         0.10202
C         31.43733        33.76247         0.25471
C         32.72636        35.90667         0.32643
C         31.45246        35.15242         0.43130
C         32.64107        37.39329         0.00522
C         31.48998        38.16404         0.66894
C         32.86002        40.22725         0.87852
C         31.60759        39.50138         1.01396
C         33.16354        41.35044         1.64993
C         32.09004        42.21557         2.34251
C         32.83432        43.78990         0.41490
C         32.10855        43.39027         1.34643
C         35.61605        27.41741         0.45694
C         35.32648        28.74972         0.79767
C         34.11363        29.42672         0.60626
C         35.26426        31.62327         0.52983
C         34.05948        30.84896         0.45758
C         35.22622        33.00388         0.38285
C         33.94641        33.75774         0.69960
C         35.24538        36.02190         0.43099
C         33.92498        35.25465         0.39025
C         35.12427        37.43329        -0.12748
C         33.96094        38.11879         0.02712
C         35.16226        40.41464        -0.20721
C         33.91593        39.61523         0.02662
C         35.30991        41.75602         0.45313
C         34.49115        41.96216         1.56034
C         35.13408        44.80457         0.09710
C         33.89191        44.11752        -0.42720
C         35.27084        46.16496        -0.61206
C         37.84758        27.09724         1.16162
C         36.66938        26.76344         0.22002
C         37.89661        28.69738         1.17875
C         36.59020        29.46594         1.17091
C         37.83750        31.55239         0.43216
C         36.57820        31.02181         1.08521
C         37.73611        32.98067        -0.08023
C         36.52072        33.77920         0.48746
C         37.65437        35.90260        -0.50093
C         36.33776        35.14337        -0.25503
C         37.64292        37.40142        -0.65876
C         36.32224        38.17373        -0.70594
C         37.73434        40.31781        -0.22579
C         36.43061        39.60355        -0.19127
C         37.63206        41.76651        -0.68231
C         36.61662        42.53923         0.24778
C         37.65064        44.63829        -0.88362
C         36.40759        43.97336        -0.32329
C         37.73130        46.13539        -0.97444
C         36.41434        46.63117        -0.75494
C         40.32824        24.59393        -0.20958
C         39.24100        25.16511         0.07478
C         40.42192        27.25340         0.54920
C         39.15056        26.43819         0.79409
C         40.29600        28.73329         0.46818
C         39.13346        29.42323         0.71953
C         40.29768        31.58026         0.08627
C         39.03748        30.86954         0.39923
C         40.30782        33.05159         0.00430
C         39.01834        33.77024         0.16189
C         40.21929        35.93561        -0.56074
C         38.96259        35.23517        -0.15081
C         40.19565        37.42591        -0.66409
C         38.91580        38.17455        -0.53550
C         40.23469        40.27517        -0.83928
C         38.96025        39.53479        -0.48746
C         40.20936        41.78211        -0.64601
C         38.96251        42.51060        -0.77026
C         40.19719        44.60628        -1.23317
C         38.94224        43.88991        -0.90093
C         40.23118        46.14724        -1.44536
C         38.89457        46.81742        -1.12964
C         40.07646        48.91213        -0.60086
C         39.11098        48.21660        -0.96382
C         42.89580        24.66540        -0.67541
C         41.59443        25.17200        -0.41690
C         42.85714        27.26322         0.07795
C         41.64914        26.58499        -0.02429
C         42.83637        28.77521         0.24149
C         41.48480        29.39880        -0.19736
C         42.79688        31.65507         0.10440
C         41.48523        30.89323        -0.01765
C         42.68732        32.96398        -0.67474
C         41.46261        33.75719        -0.25468
C         42.68352        35.92392        -0.42703
C         41.50912        35.21484        -0.34779
C         42.71322        37.42777        -0.58349
C         41.42019        38.09986        -0.08131
C         42.62526        40.27229        -0.07093
C         41.47389        39.59745        -0.29650
C         42.60707        41.77180         0.11406
C         41.41405        42.45105        -0.52275
C         42.87806        44.59109        -0.92211
C         41.51935        43.84384        -0.97869
C         42.73799        46.09184        -0.51858
C         41.45109        46.85144        -0.72973
C         42.58042        48.80655         0.23758
C         41.21443        48.20569         0.11411
C         44.00280        25.18578        -0.43792
C         45.40450        27.28144        -0.26007
C         44.20835        26.51977         0.24009
C         45.37119        28.81110        -0.17866
C         44.01510        29.41155        -0.56320
C         45.24272        31.59672        -0.37139
C         44.05724        30.91825        -0.30589
C         45.26188        33.09723        -0.14902
C         43.98959        33.76403        -0.66495
C         45.27284        35.96753        -0.27649
C         43.99263        35.25231        -0.58519
C         45.23995        37.38140        -0.01600
C         43.92854        38.05658         0.08495
C         45.16672        40.27768         0.27176
C         43.88537        39.54954         0.27545
C         45.15184        41.70057         0.13874
C         43.94815        42.43623        -0.10651
C         45.23124        44.51511         0.00829
C         43.98746        43.83203        -0.19228
C         45.14480        45.95505         0.45266
C         43.86068        46.69115         0.33937
C         43.59220        48.12872         0.44326
C         47.97499        27.07649        -0.40048
C         46.68266        26.87982        -0.35283
C         48.44866        28.10979        -1.21731
C         46.47286        29.56291        -0.92205
C         47.81757        31.65068        -0.74718
C         46.48827        30.92067        -0.72554
C         47.73969        33.08655        -0.31771
C         46.50791        33.82478        -0.71593
C         47.70008        35.95181         0.12291
C         46.48349        35.28364        -0.28077
C         47.66602        37.39003         0.38172
C         46.40757        38.10459         0.23116
C         47.60201        40.27807         0.56291
C         46.38040        39.55774         0.35458
C         47.57362        41.66863         0.57461
C         46.39743        42.39422         0.21406
C         47.78566        44.52785        -0.14774
C         46.43598        43.81428         0.08183
C         47.58647        45.87898         0.53395
C         46.50445        46.46660         0.61371
C         50.78206        28.73592        -0.50630
C         49.75438        28.60657        -1.49189
C         50.02432        31.55993         0.47430
C         48.82227        30.98047         0.18671
C         50.10262        33.08697         0.51206
C         49.03723        33.83221        -0.31514
C         50.11933        35.88195         0.66742
C         48.91553        35.25475         0.20227
C         50.00593        37.28392         1.16957
C         48.80357        38.05913         0.81629
C         49.99886        40.28518         1.42674
C         48.93709        39.55632         0.60380
C         49.91014        41.64140         1.52429
C         48.68872        42.47130         1.19587
C         50.26984        43.90274         0.08971
C         48.97211        43.71812         0.30758
C         51.31444        29.53638         0.26650
C         52.26342        31.64708         1.36401
C         51.10957        30.70577         1.19972
C         52.36561        32.84757         1.10881
C         51.49777        33.75129         0.25213
C         52.39976        36.05918         1.08234
C         51.35822        35.20064         0.64895
C         52.45810        37.28165         1.33349
C         51.26080        38.06947         1.63888
C         52.40487        40.28355         1.13123
C         51.29897        39.56508         1.85733
C         52.71372        41.46984         0.96772
C         51.92733        42.66676         0.98259
C         51.52826        43.50718        -0.03717
O         32.96881        32.38384        -1.16418
O         36.68780        31.50421         2.39876
O         40.12436        26.62591         1.84495
O         37.25338        29.10435         2.42226
O         39.02183        34.77105         1.22817
O         37.70295        36.48341        -1.83354
O         32.27957        37.35194        -1.47496
O         50.40751        37.42045         2.60031
O         37.13537        39.90802         1.06194
O         44.09412        34.53309        -1.91124
O         50.95261        42.41906         2.06163
O         47.46642        29.01135        -1.75065
O         43.72602        38.62167         1.42691
O         36.58112        44.06841        -1.76545
O         44.19200        46.02723         1.57340
O         43.46331        44.54198        -2.19051
O         40.29038        36.62130        -1.88003
O         42.53566        46.96307        -1.67295
O         34.19363        40.26761        -1.27989
O         40.91469        43.95179        -2.30428
O         42.36516        41.94615         1.56085
H         43.11864        41.54331         2.04436
O         34.80946        42.81045         2.54520
H         35.75134        43.10137         2.43120
O         42.85555        37.71411        -1.99540
H         42.12425        37.24464        -2.46200
O         49.45970        33.94861        -1.70216
H         48.66210        34.18824        -2.22636
O         40.33765        40.13910        -2.29659
H         40.35957        39.18428        -2.52188
O         51.51598        39.78496         3.25256
H         51.17555        39.00452         3.74095
O         40.75778        47.83072         1.38698
H         40.75095        48.61131         1.97794
O         48.47710        29.77628         0.72023
H         49.11903        29.55846         1.44066
O         42.94079        31.96790         1.52356
H         42.90986        31.09770         1.99440
O         36.72994        33.99535         1.89422
H         36.80383        33.06150         2.31634
O         44.40335        26.30149         1.64315
H         43.64699        25.78314         1.99167
O         33.78208        33.64738         2.14633
H         34.65684        33.82548         2.56160
O         49.76347        33.40320         1.88271
H         50.40272        32.95112         2.47460
O         33.81029        43.93253        -1.73681
H         34.66387        44.17164        -2.17187
O         42.98036        29.12895         1.63431
H         43.86123        28.80462         1.94171
O         46.54326        33.77660        -2.18329
H         45.68203        34.15989        -2.50085
O         42.44749        32.56293        -2.04670
H         42.67420        33.33597        -2.61312
O         37.51774        26.63651         2.43792
H         37.03051        27.36110         2.90405
O         49.45893        39.63656        -0.77778
H         48.74966        39.34252        -1.38867
O         35.79402        34.79783        -1.55293
H         36.10604        35.47984        -2.19479
O         37.26675        42.71923         1.52975
H         37.46666        41.81703         1.87499
O         41.30291        29.13695        -1.63281
H         40.61855        29.75657        -1.96618
O         49.91737        29.38097        -2.56169
H         49.03835        29.60156        -2.95060
O         35.12323        45.01260         1.47901
H         34.25883        45.38246         1.75339
O         45.60162        29.10374         1.22580
H         46.55769        28.96628         1.41315
O         41.24384        37.85792         1.33385
H         42.03995        38.21623         1.80226
O         40.39454        46.37071        -2.84402
H         41.34962        46.22916        -3.05257
O         43.89106        29.16553        -1.96756
H         42.95010        29.31995        -2.23356
O         48.36938        31.57199        -2.10123
H         47.85196        32.22114        -2.63339
O         35.58136        36.30578         1.80554
H         36.05147        35.52446         2.19755
O         50.60189        30.20904         2.43325
H         51.31793        29.74010         2.91098
O         37.10547        41.60263        -2.01007
H         37.21372        42.44310        -2.50933
O         32.46320        42.63919         3.61167
H         31.74447        43.16879         4.01041
O         47.88058        44.75220        -1.54365
H         48.75902        45.13154        -1.75180
O         45.30331        33.33656         1.27676
H         44.52050        32.87406         1.67581
O         31.94608        38.68852        -1.89428
H         32.80354        39.05067        -2.23755
O         37.60492        32.84690        -1.51941
H         36.82035        33.37365        -1.82052
O         51.90598        33.62081        -1.08887
H         52.62632        34.25651        -1.27387
O         35.99875        38.37021        -2.10926
H         36.43390        37.65689        -2.62831
O         48.17907        42.96317         2.45219
H         48.94209        43.29440         2.97383
