         424
 CSIRO Nanostructure Databank - Neutral Graphene Oxide Data Set
C          1.48904         1.92978        -0.98032
C          1.50788         3.31836        -1.15866
C          2.60500         1.26319        -0.49603
C          2.65352         4.08158        -0.84293
C          1.61671         6.23869        -1.61650
C          1.66644         7.59517        -1.87648
C          2.71776         5.50849        -1.08346
C          2.86113         8.35768        -1.71891
C          1.85285        10.46485        -2.54953
C          1.91623        11.81896        -2.73308
C          2.95050         9.72781        -2.00023
C          3.01066        12.60608        -2.19457
C          1.76781        14.75028        -2.53564
C          1.68195        16.18604        -2.42480
C          2.87128        14.05736        -2.10642
C          2.79464        16.94131        -2.15816
C          2.77597        18.37316        -1.98822
C          3.77830         1.98999        -0.15408
C          3.79903         3.41186        -0.31612
C          4.93964         1.32855         0.30172
C          4.95922         4.15087         0.09341
C          3.91624         6.21245        -0.77061
C          4.05812         7.61373        -1.25802
C          4.98253         5.57103        -0.12767
C          5.26878         8.41253        -0.88020
C          4.28028        10.46141        -1.95619
C          4.14249        11.95523        -1.74376
C          5.27606         9.86171        -1.00216
C          5.16025        12.67619        -0.88047
C          3.95129        14.86667        -1.40255
C          4.11750        16.21436        -2.11279
C          5.26586        14.14999        -1.20453
C          5.24748        17.01140        -1.53256
C          3.88887        19.06208        -1.61071
C          5.15731        18.39048        -1.34969
C          6.09179         2.05194         0.67289
C          6.06820         3.48107         0.65495
C          7.30765         1.36071         0.95415
C          7.20726         4.22170         1.32423
C          6.11302         6.35602         0.42250
C          6.23065         7.81611         0.08746
C          7.33937         5.66677         0.88129
C          7.49547         8.52316         0.33662
C          6.62984        10.52600        -0.94679
C          6.51051        12.01460        -0.75321
C          7.61438         9.88890         0.01481
C          7.62441        12.72786        -0.39561
C          6.41603        14.84431        -0.97676
C          6.55758        16.29262        -1.41681
C          7.62306        14.18397        -0.48943
C          7.59627        17.05477        -0.64702
C          6.29052        19.12786        -0.91726
C          7.50738        18.48117        -0.55947
C          8.52765         2.04997         1.09356
C          8.52599         3.48911         1.22028
C          9.76151         1.36273         1.10636
C          9.70810         4.18209         1.38177
C          8.49496         6.35725         1.10570
C          8.58688         7.81016         0.93990
C          9.66706         5.64430         1.76556
C          9.67120         8.52654         1.42276
C          8.66834        10.64856         0.54300
C          8.77138        12.05481         0.23841
C          9.52635        10.01917         1.61093
C          9.87506        12.78102         0.64261
C          8.74411        14.91439        -0.15773
C          8.72802        16.37344        -0.17916
C         10.03948        14.20260         0.14690
C          9.85476        17.12442         0.26444
C          8.62884        19.21453        -0.11150
C          9.83339        18.55871         0.24099
C         10.98163         2.06555         1.14938
C         10.96674         3.50240         1.27992
C         12.22100         1.39139         1.04305
C         12.17327         4.22958         1.25215
C         10.96310         6.37675         1.54738
C         10.94416         7.85431         1.88194
C         12.15279         5.68678         1.33383
C         12.12482         8.63467         1.30834
C         10.92870        10.71186         1.96515
C         10.80030        12.27809         1.72768
C         12.13715        10.01582         1.33900
C         12.20127        12.92377         1.69150
C         11.00608        15.05799         0.93590
C         11.03493        16.44237         0.72173
C         12.22573        14.40968         1.42698
C         12.24563        17.19381         0.91099
C         11.01464        19.28463         0.54881
C         12.24450        18.62276         0.79281
C         13.43147         2.10197         0.99031
C         13.41195         3.54542         1.08153
C         14.66758         1.42653         0.82304
C         14.62435         4.26778         0.98370
C         13.38372         6.40047         1.16763
C         13.32311         7.86158         0.94353
C         14.61470         5.70934         1.02735
C         14.62270         8.60963         0.84363
C         13.38563        10.76468         1.17697
C         13.43177        12.17622         1.35122
C         14.62188        10.07714         1.01075
C         14.65249        12.88950         1.20783
C         13.49497        15.08318         1.14958
C         13.48540        16.49591         1.01689
C         14.68862        14.33702         1.15469
C         14.71631        17.20187         0.97420
C         13.47765        19.32276         0.87115
C         14.71819        18.64022         0.93056
C         15.87760         2.12519         0.69591
C         15.85963         3.57863         0.77174
C         17.10544         1.43639         0.51993
C         17.04681         4.30371         0.60451
C         15.85435         6.41073         0.95980
C         15.85435         7.87306         1.31367
C         17.07443         5.72767         0.76981
C         17.11901         8.59856         0.96479
C         15.85659        10.74969         0.96449
C         15.88695        12.18170         1.01150
C         17.11494        10.00657         0.87828
C         17.10873        12.88139         0.84863
C         15.91767        15.03743         0.98991
C         15.93438        16.46696         0.94886
C         17.14492        14.30630         0.87622
C         17.16621        17.16812         0.82966
C         15.96195        19.31648         0.91616
C         17.18729        18.60480         0.85030
C         18.32025         2.11918         0.31984
C         18.27281         3.59343         0.21533
C         19.55574         1.46694         0.20398
C         19.58986         4.35811         0.25686
C         18.33328         6.43252         0.83472
C         18.32980         7.87835         0.95712
C         19.57411         5.76286         0.70430
C         19.55107         8.58461         1.02467
C         18.34713        10.68694         0.73970
C         18.33527        12.14424         0.36520
C         19.56903         9.98629         0.88345
C         19.63047        12.83693         0.67336
C         18.36276        15.01412         0.74770
C         18.38362        16.43359         0.68135
C         19.66124        14.30212         0.98833
C         19.59843        17.12990         0.45511
C         18.44043        19.26315         0.81005
C         19.64285        18.54250         0.59507
C         20.80234         2.16526         0.21458
C         20.83377         3.59031         0.36718
C         22.02800         1.46713         0.17478
C         22.04103         4.27864         0.57147
C         20.80823         6.41029         0.94524
C         20.74843         7.81683         1.51514
C         22.04084         5.70732         0.83351
C         22.05925         8.59275         1.40585
C         20.84438        10.69304         0.83257
C         20.83622        12.12974         0.68490
C         22.05602        10.02245         1.01005
C         22.08257        12.82718         0.56504
C         20.86706        14.97700         0.39811
C         20.77371        16.39154        -0.11983
C         22.05630        14.25597         0.30456
C         22.09318        17.12890        -0.06135
C         20.90632        19.19706         0.54155
C         22.12784        18.53376         0.25869
C         23.26175         2.14575         0.27550
C         23.27716         3.56769         0.49580
C         24.49498         1.45474         0.16112
C         24.51257         4.26320         0.57897
C         23.29248         6.36979         0.97182
C         23.33174         7.82392         1.21930
C         24.52005         5.68732         0.79018
C         24.56810         8.55529         0.89423
C         23.31150        10.69681         0.81947
C         23.30900        12.10820         0.53090
C         24.54600         9.98567         0.80744
C         24.52571        12.76958         0.20765
C         23.25144        14.91795        -0.10595
C         23.25246        16.31988        -0.31250
C         24.49017        14.12986        -0.43772
C         24.48313        16.90300        -0.73827
C         23.31971        19.31706         0.45181
C         24.56238        19.01205        -0.14960
C         25.72074         2.13411         0.21978
C         25.73877         3.56141         0.42557
C         26.95378         1.44275         0.05087
C         26.97755         4.26268         0.45938
C         25.76737         6.39779         0.81528
C         25.75888         7.82853         0.86147
C         27.00350         5.68194         0.65696
C         27.02394         8.57540         0.95652
C         25.77998        10.69444         0.60108
C         25.76006        12.09551         0.30551
C         27.02222        10.01505         0.65204
C         27.00474        12.79643         0.13940
C         25.77267        14.91091        -0.25451
C         25.76263        16.30806        -0.51684
C         26.98828        14.22528        -0.07245
C         26.98396        17.07706        -0.45496
C         25.87374        19.25361         0.17794
C         26.97740        18.60743        -0.65556
C         28.17871         2.11098         0.08918
C         28.20684         3.54993         0.31168
C         29.39418         1.42088        -0.18013
C         29.42997         4.23622         0.33584
C         28.25707         6.35584         0.61509
C         28.32131         7.80943         0.85317
C         29.46527         5.65270         0.42211
C         29.53366         8.55039         0.46784
C         28.24720        10.69139         0.45133
C         28.23501        12.11120         0.24035
C         29.49660         9.96507         0.37866
C         29.47742        12.83168         0.08989
C         28.20945        14.96144        -0.09842
C         28.16900        16.38929        -0.20795
C         29.46053        14.25378        -0.06221
C         29.47419        17.09033         0.08090
C         28.29514        19.26272        -0.34881
C         29.46774        18.58297        -0.14015
C         30.63679         2.06252        -0.12141
C         30.70694         3.45342         0.46534
C         31.83002         1.40404        -0.44358
C         31.94674         4.21862         0.07052
C         30.73086         6.37231         0.29842
C         30.72582         7.82033         0.24559
C         31.93463         5.66900         0.13371
C         31.93248         8.54182         0.00779
C         30.71604        10.67909         0.15381
C         30.70767        12.12603         0.04628
C         31.91841         9.95445         0.01314
C         31.92302        12.83466        -0.23327
C         30.68637        14.94286        -0.31922
C         30.63066        16.41788        -0.65504
C         31.88423        14.25028        -0.43931
C         31.92594        17.13798        -0.38167
C         30.71939        19.24659        -0.03899
C         31.94988        18.52803        -0.08603
C         33.08320         2.08225        -0.43904
C         33.10313         3.51773        -0.18879
C         34.26180         1.41765        -0.78287
C         34.43604         4.20070        -0.04007
C         33.17380         6.38293        -0.10130
C         33.17331         7.81291        -0.18598
C         34.37779         5.68062        -0.30660
C         34.37277         8.49720        -0.44105
C         33.23794        10.68367         0.02995
C         33.15599        12.13981        -0.36260
C         34.31118         9.96701        -0.77744
C         34.37164        12.81897        -0.60805
C         33.10606        14.94801        -1.00744
C         33.15576        16.44291        -0.70834
C         34.40848        14.23153        -0.70425
C         34.46877        17.12736        -0.34729
C         33.18291        19.18903         0.18246
C         34.41796        18.49293         0.23340
C         35.50682         2.10832        -0.96918
C         35.57651         3.50700        -0.72931
C         36.65424         1.42964        -1.43545
C         36.75811         4.21880        -0.99149
C         35.58610         6.36746        -0.57041
C         35.59689         7.79625        -0.58639
C         36.79981         5.65695        -0.85004
C         36.84249         8.49037        -0.69070
C         35.62414        10.69244        -0.60182
C         35.62582        12.06820        -0.57457
C         36.87199         9.93545        -0.26056
C         36.88091        12.78528        -0.54844
C         35.63781        14.91451        -0.50652
C         35.66800        16.29912        -0.17255
C         36.88115        14.17658        -0.45465
C         36.85875        16.91057         0.27760
C         35.58221        19.05397         0.73036
C         36.77421        18.20067         1.05916
C         37.86458         2.11379        -1.64754
C         37.92095         3.52590        -1.43771
C         39.05543         1.43025        -2.07158
C         39.14372         4.23659        -1.63107
C         37.99875         6.36255        -1.07722
C         38.03003         7.79398        -0.93163
C         39.20188         5.64886        -1.41865
C         39.29866         8.49845        -1.03147
C         38.13193        10.67131        -0.63397
C         38.12110        12.04443        -0.66923
C         39.34916         9.90848        -0.87101
C         39.37294        12.82501        -0.99157
C         38.13513        14.89588        -0.28501
C         38.08812        16.26120         0.10821
C         39.36601        14.21627        -0.39519
C         39.36318        17.06352         0.09517
C         38.07964        18.94231         1.14505
C         39.27518        18.35524         0.87877
C         40.23163         2.10867        -2.24624
C         40.31202         3.52315        -2.02251
C         41.52508         4.23377        -2.17604
C         40.43554         6.33664        -1.55850
C         40.49221         7.77182        -1.31524
C         41.58404         5.59716        -1.94042
C         41.71467         8.47825        -1.36127
C         40.59172        10.59473        -0.92645
C         40.62753        12.03571        -0.71084
C         41.76738         9.84930        -1.15186
C         41.77707        12.70112        -0.34030
C         40.60322        14.84602        -0.03327
C         40.60583        16.24618         0.38141
C         41.78000        14.08752        -0.04330
C         41.72250        16.89583         0.84244
C         40.52727        18.99388         1.23462
C         41.69241        18.28597         1.21334
O          5.61271         7.39336         1.35808
O         22.88915         8.28697         2.58245
O         24.38611        18.15221        -1.30745
O         12.31969        13.84816         2.80555
O         27.79247         8.21961         2.16771
O         13.96483         8.17916        -0.37309
O          5.20800         7.69950        -2.22152
O         11.10838        10.55212         3.34569
O         33.97620        17.13264        -1.73897
O         18.87703         4.12718        -1.01247
O          4.57785        12.61752         0.49195
H          5.30508        12.78674         1.13011
O         24.41380        13.85722        -1.89777
H         24.54593        14.71080        -2.36362
O         10.73586        14.06671        -1.15880
H         10.52657        14.86323        -1.69338
O         19.83166        14.38445         2.47117
H         20.66696        13.91530         2.68690
O         15.75974         7.93513         2.78170
H         16.60463         7.60207         3.15289
O          7.26080        10.34338        -2.26621
H          6.54797        10.50061        -2.94180
O          4.48620        15.89521        -3.50416
H          4.34776        16.70676        -4.03719
O         11.02105         7.91614         3.34005
H         11.12254         8.89613         3.57610
O         20.44486        16.26471        -1.57275
H         21.16124        15.73266        -1.98172
O         30.41299        16.52122        -2.08563
H         31.13495        16.01140        -2.52600
O         33.93347        10.06127        -2.17889
H         34.62824         9.62404        -2.71357
O          6.87248         4.28114         2.74746
H          7.61838         4.75505         3.19270
O         29.75689        16.87809         1.49644
H         29.05076        17.31499         2.01653
O         36.51985        17.73724         2.45103
H         36.45260        18.53611         3.01639
O         33.71257        10.64521         1.42032
H         33.02828        11.06562         1.98328
O          7.09852        16.20334        -2.79303
H          6.35381        15.85839        -3.34863
O         10.13287        12.76305         2.90422
H         10.45837        12.14439         3.62061
O          4.83286        10.26121        -3.34041
H          4.93635         9.27874        -3.42248
O         20.47233         7.62839         2.94325
H         21.35508         7.62381         3.38834
O         32.91182        14.86623        -2.46350
H         33.56132        15.49612        -2.85595
O         34.74399         4.08609         1.40823
H         34.05986         4.59991         1.88940
O         26.77623        18.87446        -2.06652
H         25.83174        18.67996        -2.27087
O          9.39068         5.67429         3.21128
H          9.81473         6.49709         3.57140
O         39.51809        17.47947        -1.31289
H         40.33132        18.02610        -1.36102
O          3.46426        15.13172        -0.05962
H          3.50794        14.27232         0.42614
O         30.86292         3.24487         1.92157
H         31.64041         2.65878         2.04551
O         36.85725         9.89504         1.22463
H         35.91463         9.87828         1.50858
O         18.22093        12.17073        -1.11911
H         17.44853        11.61631        -1.36252
O          8.73457        10.22196         2.81266
H          9.42486        10.34777         3.53114
O         39.34256        13.03045        -2.45946
H         40.07907        13.63957        -2.68050
H          0.58170         1.36566        -1.23771
H          0.60945         3.80753        -1.55760
H          2.59149         0.17161        -0.36734
H          0.66950         5.71594        -1.80604
H          0.75569         8.08612        -2.24594
H          0.93297         9.93639        -2.83786
H          1.05552        12.33096        -3.18292
H          0.89370        14.22685        -2.94839
H          0.70215        16.66857        -2.55942
H          1.82277        18.90321        -2.13634
H          4.95298         0.22964         0.34995
H          3.84369        20.15179        -1.47022
H          7.31204         0.26116         0.91715
H          6.21786        20.22152        -0.82536
H          9.77054         0.26585         1.02281
H          8.57970        20.31273        -0.07755
H         12.23207         0.29454         0.95913
H         10.99486        20.38318         0.49673
H         14.67014         0.32793         0.76319
H         13.47323        20.42096         0.80481
H         17.10471         0.33619         0.54257
H         15.97903        20.41645         0.91603
H         19.57670         0.36666         0.19802
H         18.47815        20.35982         0.88703
H         22.02390         0.37489         0.04451
H         20.93733        20.27725         0.75018
H         24.48734         0.36671        -0.00132
H         23.22444        20.24641         1.03322
H         26.93467         0.35760        -0.13011
H         26.12890        19.81333         1.08743
H         29.34682         0.36301        -0.48162
H         28.32827        20.35663        -0.47260
H         31.79771         0.34825        -0.75393
H         30.74504        20.34624         0.00087
H         34.22439         0.33801        -0.99302
H         33.15661        20.24380         0.49372
H         36.60468         0.34554        -1.61687
H         35.55675        20.07968         1.13213
H         39.00900         0.34483        -2.24288
H         38.06347        19.92698         1.64302
H         41.13974         1.57302        -2.55977
H         42.43228         3.69093        -2.47868
H         42.54851         6.10699        -2.06640
H         42.65361         7.94515        -1.56042
H         42.73969        10.35889        -1.20021
H         42.71860        12.14743        -0.21184
H         42.73472        14.54859         0.24244
H         42.67492        16.36092         0.96516
H         40.50623        20.02770         1.61028
H         42.63055        18.75877         1.53646
