         618
 CSIRO Nanostructure Databank - Neutral Graphene Oxide Data Set
C         23.31800        69.42399         2.83134
C         23.58668        70.77396         3.45001
C         22.57968        71.35216         4.23351
C         23.89572        73.36248         4.47831
C         22.73711        72.63531         4.75879
C         25.42116        65.49702         0.64199
C         25.49288        66.85453         1.00669
C         24.40781        67.50248         1.68506
C         25.72108        69.54171         1.94797
C         24.50918        68.79672         2.14648
C         25.87680        70.86418         2.45874
C         24.78250        71.48665         3.20395
C         26.11662        73.65586         3.36362
C         24.92137        72.79998         3.70944
C         27.82618        61.31105         0.01337
C         27.70935        62.68892        -0.26286
C         26.53505        63.40670        -0.01943
C         27.71056        65.58435        -0.22471
C         26.53234        64.83208         0.07447
C         27.79707        66.95298         0.10516
C         26.68464        67.59250         0.74971
C         27.96823        69.68034         0.95809
C         26.78772        68.93778         1.21901
C         28.16626        70.93000         1.56338
C         27.11093        71.53005         2.31795
C         28.53586        73.44867         2.86094
C         27.30823        72.87322         2.85962
C         30.42703        57.17648         0.49537
C         30.38491        58.60134         0.39286
C         29.16959        59.28074         0.32987
C         30.27817        61.42030        -0.24261
C         29.08489        60.67491         0.02530
C         30.21722        62.75143        -0.69064
C         28.89568        63.38454        -0.79708
C         30.15988        65.64222        -0.87081
C         28.87760        64.93003        -0.81669
C         30.13447        67.04739        -0.72576
C         28.97406        67.69740        -0.25134
C         30.17156        69.99770        -0.31841
C         28.94815        69.15249        -0.01100
C         30.39139        71.19201         0.52944
C         29.43680        71.61945         1.41141
C         30.96390        73.50813         2.13394
C         29.75592        72.67253         2.44688
C         32.87775        52.93987         0.51310
C         32.86331        54.33493         0.65625
C         31.67051        55.07985         0.61680
C         32.87015        57.32151         0.93045
C         31.63162        56.49209         0.62895
C         32.84396        58.67962         0.26098
C         31.62843        59.33016         0.22215
C         32.78737        61.42115        -0.52269
C         31.59568        60.83309         0.18343
C         32.64381        62.73414        -1.17616
C         31.38217        63.50056        -1.01528
C         32.59788        65.65809        -1.35799
C         31.37699        64.92509        -1.13749
C         32.63425        67.07387        -1.29374
C         31.34790        67.80984        -1.11557
C         32.72274        69.93137        -0.75897
C         31.36663        69.30807        -0.92949
C         32.81208        71.30669        -0.20734
C         31.53066        72.11557         0.11050
C         33.09934        73.89878         1.01176
C         31.87021        73.18781         1.15723
C         35.19530        48.50441         0.25359
C         34.92692        49.79481         0.70399
C         33.91744        50.75169         0.38820
C         35.34774        52.89769         0.46087
C         34.06905        52.16068         0.52319
C         35.37026        54.29558         0.36634
C         34.15833        55.04848         0.74444
C         35.36151        57.23482         0.18029
C         34.17902        56.55316         0.76194
C         35.28775        58.66232        -0.10763
C         34.07447        59.36308        -0.06776
C         35.21832        61.45573        -0.90473
C         34.00011        60.75529        -0.51747
C         35.18675        62.80894        -1.34154
C         33.88535        63.45180        -1.64769
C         35.08813        65.70480        -1.82069
C         33.78673        64.95113        -1.99111
C         35.07262        67.08751        -1.70932
C         33.84076        67.79485        -1.48332
C         35.19847        69.97926        -1.31335
C         33.84548        69.31957        -1.60395
C         35.23833        71.43251        -1.05282
C         34.00530        72.14531        -0.50928
C         35.39533        74.08286         0.14194
C         34.17055        73.41130         0.24276
C         37.84469        44.33158         0.45453
C         37.80013        45.75233         0.46871
C         36.56580        46.44490         0.39967
C         37.74388        48.56640         0.45535
C         36.48863        47.84706         0.41216
C         37.75095        50.01569         0.13442
C         36.73775        50.87964         0.65194
C         37.80637        52.91698        -0.09075
C         36.59954        52.21219         0.28117
C         37.76443        54.34256        -0.19504
C         36.56662        55.03392         0.04498
C         37.69620        57.20403        -0.58457
C         36.49224        56.48551        -0.11320
C         37.70858        58.67143        -0.44255
C         36.51471        59.37513        -0.41565
C         37.65682        61.50044        -1.04848
C         36.46857        60.79477        -0.75046
C         37.61880        62.85904        -1.43056
C         36.38476        63.52200        -1.56772
C         37.60900        65.69526        -2.30339
C         36.33451        64.93645        -2.05761
C         37.56944        67.20182        -2.36820
C         36.30186        67.89583        -1.98715
C         37.67293        69.99787        -1.49678
C         36.38154        69.31926        -1.54935
C         37.72136        71.39272        -1.11236
C         36.52726        72.09535        -0.84625
C         37.78777        74.14944        -0.39990
C         36.55953        73.46266        -0.40498
C         40.31673        40.05885         0.39312
C         40.26050        41.48297         0.44379
C         39.07366        42.20151         0.47191
C         40.30181        44.37722         0.54795
C         39.05511        43.63484         0.48234
C         40.28020        45.79886         0.62018
C         39.03063        46.48802         0.56523
C         40.23283        48.72954         0.76556
C         38.97151        47.90877         0.54146
C         40.30356        50.00053        -0.08698
C         39.04192        50.77831        -0.29619
C         40.30440        52.94161         0.20279
C         39.03203        52.22541        -0.17076
C         40.29655        54.39928        -0.20025
C         39.02055        54.95951        -0.78430
C         40.27823        57.21131        -0.63829
C         38.99449        56.47927        -0.81333
C         40.26335        58.60848        -0.73142
C         38.99508        59.35765        -0.56590
C         40.16246        61.40362        -1.54650
C         38.96350        60.83121        -0.86266
C         40.15595        62.87437        -1.77834
C         38.89457        63.62937        -1.49868
C         40.18851        65.72374        -2.21718
C         38.90176        65.06719        -1.88791
C         40.18895        67.19066        -2.36102
C         38.87418        67.95755        -2.33314
C         40.14790        69.99904        -1.66065
C         38.88362        69.34652        -1.82914
C         40.19088        71.41877        -1.33755
C         38.96621        72.09522        -1.06856
C         40.22039        74.19759        -0.76376
C         38.99194        73.49793        -0.75710
C         42.84594        35.83729         0.19094
C         42.80233        37.24285         0.29824
C         41.58025        37.94494         0.32599
C         42.75688        40.06191         0.97824
C         41.51568        39.34420         0.49599
C         42.82115        41.49855         0.51421
C         41.53179        42.23777         0.34137
C         42.77080        44.38182         0.72233
C         41.53702        43.69587         0.53107
C         42.76123        45.82520         0.77306
C         41.52847        46.51657         0.68624
C         42.73046        48.64771         0.68920
C         41.52967        47.94819         0.66832
C         42.68679        50.12930         0.74737
C         41.57625        50.76914        -0.02605
C         42.76329        53.03712         0.20804
C         41.57740        52.26535        -0.34800
C         42.73833        54.41344         0.12118
C         41.48358        55.09410        -0.21699
C         42.71671        57.26725        -0.26562
C         41.50035        56.53053        -0.42298
C         42.69242        58.68171        -0.48006
C         41.48592        59.32733        -0.78112
C         42.64291        61.56684        -1.14848
C         41.49565        60.65123        -1.52149
C         42.64018        62.95128        -1.68145
C         41.43345        63.61709        -1.86070
C         42.65326        65.76167        -2.02594
C         41.39543        65.04377        -2.04527
C         42.63751        67.16759        -1.95344
C         41.42308        67.89981        -1.97050
C         42.56819        69.98269        -1.07668
C         41.37022        69.27819        -1.69497
C         42.69139        71.40819        -1.63083
C         41.40547        72.13249        -1.30985
C         42.68298        74.22641        -0.97251
C         41.43777        73.53300        -1.03050
C         45.35255        33.05212         0.05152
C         44.11822        33.73323         0.10904
C         45.30731        35.89642        -0.25936
C         44.05734        35.13155         0.06085
C         45.29846        37.31450         0.20624
C         44.06514        37.98090         0.39247
C         45.26228        40.09303         0.76722
C         44.05321        39.35499         0.67486
C         45.23380        41.50933         1.02399
C         44.04189        42.25403         0.87904
C         45.17426        44.43737         1.46461
C         43.99061        43.66546         0.91650
C         45.22735        45.87429         1.00616
C         44.00290        46.55999         0.86349
C         45.21106        48.73057         0.96739
C         43.99685        47.99371         0.81711
C         45.22840        50.18978         1.03868
C         43.92780        50.89835         1.02577
C         45.21309        53.16270         0.96094
C         43.90985        52.38407         0.84008
C         45.21635        54.52135         0.42280
C         43.96648        55.18641         0.22602
C         45.26008        57.30108         0.24089
C         43.94871        56.57683        -0.01161
C         45.26322        58.77369        -0.17203
C         43.95177        59.46659        -0.38648
C         45.20341        61.55785        -1.19741
C         43.93893        60.91158        -0.79462
C         45.12770        62.86739        -1.65628
C         43.89656        63.63342        -1.76259
C         45.12719        65.79154        -1.89222
C         43.89301        65.04099        -1.94248
C         45.17139        67.16928        -1.83095
C         43.91146        67.96079        -2.04318
C         45.17572        69.94669        -1.11016
C         43.88402        69.21431        -1.20007
C         45.14977        71.42400        -1.02402
C         43.94774        72.11754        -1.15477
C         45.15339        74.22942        -0.79953
C         43.93118        73.54769        -0.99803
C         46.55713        33.73849         0.02086
C         47.76896        35.88294         0.08120
C         46.58884        35.16329        -0.00578
C         47.78222        37.31645         0.17984
C         46.51548        38.02059         0.31652
C         47.75313        40.14646         0.57784
C         46.50943        39.41621         0.57978
C         47.76056        41.53506         0.75796
C         46.51572        42.21500         1.17456
C         47.66206        44.42327         0.64529
C         46.50816        43.70164         1.31981
C         47.70784        45.89197         0.97475
C         46.45305        46.58341         1.00074
C         47.68453        48.71127         1.11636
C         46.44430        48.01874         1.01847
C         47.66582        50.17270         1.25699
C         46.40129        50.90500         1.10193
C         47.68982        52.98874         0.42825
C         46.52432        52.43416         1.25372
C         47.65363        54.36639        -0.03646
C         46.45773        55.13931         0.07740
C         47.65762        57.17285        -0.58983
C         46.46977        56.52663        -0.21678
C         47.64116        58.59996        -0.90699
C         46.48577        59.37696        -0.77126
C         47.61211        61.34889        -1.69912
C         46.44990        60.77089        -1.21744
C         47.64328        62.77777        -2.05430
C         46.35581        63.54797        -2.09999
C         47.65162        65.76163        -1.80667
C         46.38519        65.04939        -2.07006
C         47.65987        67.12514        -1.69159
C         46.42391        67.88670        -1.72104
C         47.67033        69.94122        -1.07900
C         46.44945        69.25770        -1.43629
C         47.62248        71.37903        -0.78801
C         46.38875        72.10684        -0.85959
C         47.62388        74.21712        -0.56924
C         46.39091        73.53892        -0.74677
C         48.97643        38.02476         0.22570
C         50.20571        40.15871         0.43950
C         49.00126        39.44473         0.39210
C         50.22595        41.56862         0.60397
C         48.97726        42.27738         0.72612
C         50.17948        44.41390         0.82758
C         48.97319        43.69455         0.80066
C         50.18549        45.85355         0.91354
C         48.92093        46.57978         0.99306
C         50.15183        48.74214         0.95634
C         48.91385        48.01992         1.06264
C         50.18392        50.13023         0.77765
C         48.97049        50.93879         0.97282
C         50.01060        52.65567        -0.58471
C         48.84805        52.26420         0.32716
C         49.88815        54.11592        -1.17563
C         48.83112        54.99005        -0.52877
C         50.09818        57.05546        -1.09606
C         48.84714        56.39188        -0.76922
C         50.06673        58.48431        -1.32127
C         48.87737        59.18311        -1.37038
C         50.14420        61.32459        -1.51204
C         48.88881        60.57893        -1.94376
C         50.16662        62.78700        -1.51008
C         48.91283        63.53629        -1.82376
C         50.06938        65.67727        -1.05871
C         48.77462        64.93014        -1.23766
C         50.10102        67.03059        -1.06917
C         48.97558        67.86968        -1.64613
C         50.10010        69.88210        -0.60447
C         48.88004        69.24806        -1.03123
C         50.01803        71.30287        -0.07984
C         48.80820        72.07042        -0.52990
C         50.07794        74.17365        -0.22241
C         48.83752        73.50548        -0.43436
C         51.43201        42.30055         0.64387
C         52.65083        44.43904         0.80402
C         51.43310        43.70131         0.77805
C         52.65541        45.83021         0.87615
C         51.40432        46.53363         0.96802
C         52.72990        48.72840         0.69803
C         51.42213        48.00340         1.06160
C         52.54032        50.08422         0.14562
C         51.37362        50.80294         0.37916
C         52.55405        52.92597        -0.40627
C         51.30132        52.31483         0.18361
C         52.53683        54.17216        -0.95550
C         51.27632        54.84181        -1.48191
C         52.58113        57.02923        -1.34733
C         51.29354        56.34393        -1.23368
C         52.59495        58.47070        -1.29592
C         51.34621        59.19284        -1.71131
C         52.49197        61.31955        -0.75658
C         51.31798        60.65182        -1.30231
C         52.43410        62.64538        -0.34112
C         51.32629        63.47019        -0.82519
C         52.35478        65.56418         0.17526
C         51.15993        64.88977        -0.40079
C         52.55466        66.99959        -0.20343
C         51.37076        67.74367        -0.77582
C         52.62616        69.89522        -0.51271
C         51.29240        69.19722        -0.54394
C         52.54793        71.29180         0.12379
C         51.30752        72.06870        -0.20415
C         52.56566        74.18883         0.06889
C         51.31955        73.47365        -0.12739
C         53.90578        46.56162         0.82495
C         55.30511        48.58373         0.73240
C         53.99955        47.91761         0.62955
C         55.57191        49.73474         0.03496
C         53.63804        50.76550        -0.46987
C         55.09976        52.78581        -0.40343
C         53.77439        52.12849        -0.44710
C         55.07671        54.24902        -0.73889
C         53.83410        54.80506        -1.42593
C         55.07292        57.02362        -1.45977
C         53.78836        56.32070        -1.34515
C         55.06517        58.55730        -1.22650
C         53.75885        59.20320        -1.03456
C         54.92964        61.25709        -0.26142
C         53.73350        60.57919        -0.64633
C         54.88346        62.61417         0.16813
C         53.52659        63.20815         0.54561
C         54.79827        65.49830         1.02335
C         53.53428        64.76142         0.67542
C         54.87312        67.00460         0.79934
C         53.74865        67.72739         0.31247
C         54.93824        69.86317         0.45974
C         53.76802        69.13328         0.15719
C         54.96165        71.36846         0.65072
C         53.85642        72.05801        -0.13650
C         55.05805        74.18605         0.26802
C         53.80480        73.54436         0.15256
C         56.59367        50.74557         0.12944
C         57.58508        52.89137        -0.39493
C         56.41167        52.07616        -0.25342
C         57.57678        54.22104        -0.78119
C         56.36172        54.94460        -0.98016
C         57.55683        57.09140        -1.02114
C         56.35193        56.32674        -1.19724
C         57.51004        58.49705        -0.74017
C         56.27783        59.21297        -0.73256
C         57.38095        61.21690         0.16637
C         56.20288        60.55707        -0.28086
C         57.32717        62.58571         0.58769
C         56.06610        63.29572         0.53264
C         57.20406        65.12596         1.60622
C         56.03514        64.64183         1.04151
C         57.29224        67.22724         1.56125
C         56.05413        67.76193         1.01234
C         57.41759        69.81918         0.85263
C         56.09771        69.14664         0.76155
C         57.49277        71.28690         0.61687
C         56.26696        72.04687         0.37175
C         57.58429        74.09367         0.37367
C         56.29758        73.45013         0.28752
C         58.86433        54.91029        -1.16482
C         59.96964        57.08379        -0.62827
C         58.80767        56.40060        -0.92457
C         59.94644        58.47193        -0.29751
C         58.70248        59.17099        -0.32571
C         59.81896        61.11786         0.65115
C         58.64246        60.51615         0.14539
C         59.73540        62.43404         1.36944
C         58.51535        63.23194         1.01843
C         59.72174        65.39212         1.49559
C         58.51042        64.59522         1.38924
C         59.75270        66.82672         1.42840
C         58.55646        67.63808         1.22808
C         59.91713        69.72294         0.84618
C         58.64394        68.97860         0.51422
C         59.97885        71.11805         0.69422
C         58.79144        71.89034         0.14939
C         60.02765        74.00691         0.67209
C         58.79415        73.38209         0.43829
C         61.11059        59.12248         0.16834
C         62.21079        61.03168         1.40613
C         61.04287        60.42532         0.66541
C         62.22822        62.54253         1.34648
C         61.00401        63.24837         1.33248
C         62.21380        65.37231         1.48503
C         60.97568        64.66505         1.42880
C         62.23154        66.79985         1.49629
C         61.00447        67.52379         1.37205
C         62.30602        69.64981         1.35716
C         61.06455        68.96511         1.21267
C         62.36104        71.07488         1.25481
C         61.18415        71.81385         0.94434
C         62.44565        73.91678         1.10757
C         61.22752        73.26305         0.88516
C         63.43236        63.22979         1.44658
C         64.67253        65.34153         1.65723
C         63.45272        64.64785         1.52120
C         64.70658        66.75182         1.71931
C         63.47612        67.48952         1.59604
C         64.75214        69.59791         1.72157
C         63.51534        68.91284         1.57709
C         64.79391        71.02422         1.67650
C         63.59921        71.76089         1.43765
C         64.87306        73.85877         1.55765
C         63.64479        73.19520         1.36634
C         65.92715        67.44524         1.88492
C         67.19130        69.55465         2.07566
C         65.97269        68.85678         1.90352
C         67.23858        70.96688         2.05757
C         66.03067        71.70894         1.84449
C         67.31389        73.79989         1.97704
C         66.06868        73.13874         1.79507
C         68.45874        71.67479         2.23168
C         68.48163        73.06879         2.19319
O         31.09436        72.75154        -1.02629
O         33.09793        62.65710        -2.59653
O         39.59703        67.74919        -3.59266
O         57.55207        70.71911         1.99939
O         44.62555        59.50148         0.93879
O         38.10840        50.25337        -1.27557
O         38.94373        64.65020        -0.44765
O         46.26138        64.29555        -3.35286
O         33.06071        70.15426         0.66102
O         48.50842        63.21122        -3.17946
O         28.63529        64.11910        -2.01788
O         52.45758        67.25348        -1.66350
O         34.44460        55.79762         1.99952
O         51.26011        63.38126        -2.30338
O         46.79765        42.91427         2.49736
O         48.47412        50.75657         2.32775
O         42.34217        41.77199        -0.82494
O         31.10918        68.75137        -2.23105
O         35.88955        50.33022         1.60849
O         29.03201        70.01494        -1.21193
O         54.66195        49.99288        -1.00938
O         57.11899        66.20195         2.49390
O         36.69628        67.73272        -3.40452
O         49.19092        53.97813        -2.41084
O         42.96795        50.57997         2.10798
O         41.23183        49.95240        -1.20446
O         51.19204        65.23535         1.02365
O         36.93633        65.04795        -3.41384
O         52.27099        48.61022         2.09333
O         54.96565        53.85596         0.65533
O         39.20442        60.39432         0.50043
O         53.82100        65.15297         2.06687
O         39.87841        61.91611        -2.88630
O         34.32313        72.23042        -1.90990
O         44.28989        53.05421         2.09523
O         45.21504        35.99548        -1.83300
O         44.58093        69.18895         0.07122
O         55.18677        57.97396        -2.56455
O         43.11180        61.61258         0.22805
O         38.19264        56.90240        -1.97493
O         45.38661        57.26165         1.70082
H         44.92631        58.06780         2.03965
O         42.24325        70.09810         0.32706
H         43.06065        69.85985         0.82957
O         46.34557        36.73587        -2.29397
H         47.01853        36.03895        -2.49013
O         52.94977        69.98481        -1.92463
H         52.95640        69.05978        -2.26985
O         47.31591        44.34797        -0.78329
H         48.01631        44.81249        -1.28858
O         33.51682        65.03453        -3.42422
H         33.03616        64.20803        -3.67005
O         54.04494        54.49446        -2.83030
H         53.16676        54.63290        -3.27474
O         46.83263        52.71784         2.63325
H         45.99164        52.64261         3.13786
O         52.42706        71.01210         1.54260
H         52.56729        71.84492         2.04053
O         54.26851        71.97838        -1.51599
H         53.52026        72.25210        -2.08558
O         25.71991        74.61340         2.35785
H         25.48503        74.12081         1.54460
O         49.78094        71.12831         1.37258
H         49.69832        72.02418         1.76381
O         51.43068        54.78334        -2.93310
H         50.51000        54.52502        -3.25551
O         33.53806        69.63606        -2.97846
H         34.14300        69.13022        -3.56093
O         42.64618        40.13999         2.43709
H         42.62969        39.22412         2.78623
O         44.88943        44.53833         2.89620
H         45.40382        43.81544         3.33224
O         48.98368        60.44432        -3.40778
H         48.95705        61.36453        -3.77052
O         54.79198        71.59766         2.08454
H         55.61281        71.26297         2.51981
O         62.08049        60.65276         2.79326
H         61.20250        60.98941         3.09610
O         53.25172        62.67672         1.87204
H         53.53081        63.36969         2.51812
O         41.79089        60.24117        -2.88776
H         41.21761        60.78212        -3.48459
O         40.43040        52.87614         1.65240
H         39.62914        53.26963         2.05633
O         41.63291        52.42140        -1.77271
H         41.24871        51.60773        -2.17665
O         58.59233        68.76168        -0.92061
H         59.43653        68.34966        -1.19819
O         40.13011        49.23448         2.13143
H         40.32715        48.50225         2.75221
O         22.76858        68.52207         3.80625
H         23.42204        68.41930         4.52791
O         31.73403        61.23992         1.60820
H         32.20164        60.51627         2.08081
O         32.76496        57.66658         2.34948
H         33.18972        56.92302         2.84147
O         59.10415        54.66210        -2.56780
H         58.35470        55.03894        -3.07449
O         39.05871        54.50197        -2.16985
H         38.56477        55.17192        -2.69842
O         59.55408        62.06761         2.80307
H         59.43856        62.90433         3.30409
O         30.16328        71.91589         3.65288
H         30.94104        71.37002         3.40798
O         58.80897        71.74856        -1.29877
H         59.59270        72.22784        -1.63929
O         48.33007        64.61486         0.13322
H         48.56852        65.36011         0.72625
O         43.98006        68.45622        -3.41963
H         43.88902        67.69230        -4.02752
O         42.80649        71.29897        -3.07559
H         42.82068        72.20319        -3.45253
O         49.33450        68.10836        -3.04619
H         49.35332        67.24275        -3.50795
O         51.14480        52.90653         1.50014
H         51.90897        52.64433         2.05493
O         51.41482        59.18380        -3.17242
H         50.57027        59.58357        -3.50928
O         49.95947        51.75658        -1.70772
H         49.51346        52.30461        -2.42017
H         24.01031        74.38616         4.86205
H         26.41704        74.25672         4.26008
H         28.66833        74.46417         3.26419
H         31.25095        74.24652         2.90262
H         33.21409        74.87106         1.51702
H         35.50356        75.07485         0.60523
H         37.81552        75.20454        -0.09159
H         40.22908        75.27077        -0.52253
H         42.67341        75.31266        -0.79812
H         45.14371        75.32257        -0.67591
H         47.63044        75.31505        -0.50341
H         50.08089        75.27134        -0.15234
H         52.51653        75.28399         0.17094
H         55.09947        75.28348         0.34468
H         57.61314        75.18953         0.47757
H         60.06850        75.10326         0.76342
H         62.48209        75.01583         1.07473
H         64.90580        74.95749         1.51189
H         67.34873        74.89821         1.94358
H         22.51235        69.56123         2.05569
H         21.66093        70.78116         4.42779
H         21.94242        73.08029         5.37332
H         24.51340        64.92147         0.87637
H         23.48162        66.93713         1.86446
H         26.93469        60.74526         0.32145
H         25.63664        62.86218         0.30762
H         29.48459        56.61251         0.42084
H         28.23339        58.71909         0.46479
H         31.91261        52.41537         0.43927
H         30.71955        54.53634         0.50142
H         34.41407        47.95271        -0.29106
H         32.93069        50.38689         0.06042
H         36.90019        43.76966         0.40219
H         35.63744        45.85677         0.34510
H         39.37986        39.50457         0.22510
H         38.11261        41.66572         0.49437
H         41.90338        35.27074         0.24486
H         40.64817        37.38811         0.14191
H         45.35715        31.95403         0.09656
H         43.19133        33.15921         0.25351
H         47.50700        33.18663         0.07610
H         48.72882        35.34588         0.13931
H         49.93128        37.48601         0.13065
H         51.15898        39.61759         0.34466
H         52.39034        41.76715         0.55696
H         53.60460        43.89461         0.73874
H         54.83174        45.96872         0.87703
H         56.03428        48.17449         1.44809
H         57.60008        50.44845         0.46759
H         58.56002        52.39552        -0.26439
H         59.72822        54.46516        -0.61152
H         60.92373        56.53928        -0.56821
H         62.05949        58.56770         0.21044
H         63.17924        60.61238         1.03623
H         64.38129        62.67510         1.48510
H         65.61251        64.77396         1.71863
H         66.85981        66.87265         1.99597
H         68.12109        68.98478         2.22181
H         69.38812        71.11130         2.39680
H         69.43468        73.59871         2.33116
