         264
 CSIRO Nanostructure Databank - Neutral Graphene Oxide Data Set
C        -10.34585         0.92899        -0.17705
C         -9.51592         1.72632        -1.08065
C         -7.96368         0.35271        -2.09369
C         -6.68502         1.08474        -2.07043
C         -5.47280         0.28324        -1.68264
C         -4.10487         0.94970        -1.42829
C         -3.23185         0.37553        -0.29588
C         -2.06132         1.20868         0.15835
C         -1.22930         0.75635         1.36090
C          0.07663         1.49017         1.53398
C          1.36573         0.78122         1.78266
C          2.58596         1.51262         1.29195
C          3.83925         0.74630         1.05013
C          5.11905         1.52779         0.89125
C          6.40210         0.75250         0.77643
C          7.60956         1.55832         0.42998
C          8.42684         1.10012        -0.74867
C          9.64148         1.86726        -1.26311
C         10.74725         1.01809        -1.77933
C         -9.03001         2.97959        -0.85658
C         -7.91005         3.50873        -1.77349
C         -6.75328         2.50575        -1.61315
C         -5.53697         3.15861        -1.10372
C         -4.22048         2.50391        -1.34884
C         -3.03664         3.35630        -1.05605
C         -1.76472         2.57063        -0.61690
C         -0.75687         3.48616         0.07330
C          0.00109         2.98291         1.28726
C          1.33560         3.70655         1.53810
C          2.64311         3.00374         1.41573
C          3.80917         3.71421         1.28773
C          5.10002         3.02883         0.99463
C          6.40210         3.76745         1.19998
C          7.67424         2.96609         1.02056
C          9.19665         4.25235        -0.68892
C         10.04882         3.24356        -0.81763
C         -7.26196         4.88078        -1.35240
C         -7.14987         5.96009        -2.43405
C         -5.78492         4.64910        -0.80538
C         -4.59051         5.58301        -1.14541
C         -3.25143         4.89956        -0.92052
C         -2.35089         5.50338         0.15642
C         -0.93392         4.96953         0.12627
C          0.16060         5.84101         0.69074
C          1.32283         5.18854         1.35770
C          2.59502         5.97056         1.48661
C          3.83478         5.20818         1.14164
C          5.11093         5.98570         0.99269
C          6.44201         5.27110         1.09058
C          7.72167         6.00237         0.52095
C          8.34775         5.26402        -0.68921
C         -7.04234         7.34195        -1.86033
C         -6.01207         7.83458        -1.12643
C         -4.64960         7.16534        -0.97257
C         -3.81233         7.72582         0.19154
C         -2.53359         7.01529         0.53530
C         -1.33338         7.89120         1.09665
C          0.05741         7.32617         0.70534
C          1.30202         8.16204         0.94918
C          2.53520         7.46053         1.52372
C          3.82442         8.23461         1.36899
C          5.11306         7.46665         1.29266
C          6.36374         8.21778         0.67013
C          7.34667         7.38671         0.04095
C         -6.02539         9.26887        -0.82655
C         -5.02377         9.92563        -0.21655
C         -3.88381         9.24496         0.48837
C         -2.55139         9.95078         0.32500
C         -1.38441         9.38440         0.72496
C         -0.14708        10.15856         0.80775
C          1.08461         9.64378         1.12351
C          2.29965         9.90047         0.23782
C          3.69839         9.62066         0.78751
C          4.90032        10.18808         0.13218
C          6.10097         9.57263         0.12753
C        -10.46727        -0.42653        -0.05127
C         -9.81774        -1.55497        -0.73388
C         -8.07017        -0.98285        -1.99734
C         -6.87037        -1.90849        -1.80099
C         -5.77237        -1.08414        -1.09665
C         -4.83121        -1.65545        -0.06681
C         -3.67078        -0.84084         0.47798
C         -2.61473        -1.46555         1.35472
C         -1.31651        -0.71178         1.71511
C         -0.00580        -1.47220         1.98610
C          1.34040        -0.73303         1.93693
C          2.67152        -1.47893         1.79101
C          3.93993        -0.70079         1.44865
C          5.17922        -1.41727         0.97208
C          6.22492        -0.63259         0.24857
C          7.11234        -1.15387        -0.63577
C          8.22696        -0.34020        -1.18535
C          9.42608        -1.08794        -1.76631
C         10.68404        -0.32429        -1.90700
C         -9.46507        -2.71273        -0.12616
C         -8.62300        -3.75640        -0.84302
C         -7.15375        -3.24971        -1.02636
C         -6.06331        -3.86303        -0.18682
C         -4.83286        -3.11768         0.22605
C         -3.83860        -3.70118         0.95509
C         -2.63715        -2.95928         1.47375
C         -1.31891        -3.69726         1.53323
C          0.01625        -2.98935         1.76867
C          1.33465        -3.71883         1.55713
C          2.68583        -2.98442         1.64985
C          4.00986        -3.76592         1.33831
C          5.16523        -2.90151         0.76949
C          6.09861        -3.43006        -0.26121
C          6.95745        -2.56038        -1.15383
C          8.27431        -3.27516        -1.42955
C          9.43370        -2.55445        -1.66463
C         -8.74079        -5.12383        -0.06834
C         -7.48544        -5.95353        -0.06968
C         -6.31483        -5.19242         0.46356
C         -5.12900        -5.92284         0.97238
C         -3.84496        -5.18217         1.34734
C         -2.58317        -5.85701         0.80306
C         -1.31504        -4.98840         0.70084
C          0.00552        -5.80882         0.75796
C          1.31801        -5.11100         0.95515
C          2.62155        -5.90464         1.10324
C          3.68806        -4.97005         0.45040
C          4.53323        -5.37367        -0.72901
C          5.77042        -4.59605        -1.15778
C          7.01698        -5.42034        -1.43014
C          8.23555        -4.69246        -1.50978
C         -7.46806        -7.30075        -0.18217
C         -6.20898        -8.07121        -0.01733
C         -5.02609        -7.36898         0.57801
C         -3.83378        -8.17830         1.15624
C         -2.57057        -7.34851         0.77733
C         -1.29018        -8.09071         0.98039
C          0.00031        -7.30813         0.97484
C          1.26923        -8.05516         0.67150
C          2.51785        -7.26282         0.40666
C          3.39320        -7.68949        -0.71167
C          4.42805        -6.76850        -1.27670
C          5.65573        -7.48091        -1.78505
C          6.94151        -6.77427        -1.70925
C         -6.19208        -9.55047        -0.00166
C         -5.03173       -10.22443         0.17435
C         -3.76848        -9.56542         0.49519
C         -2.57449       -10.19513         0.33259
C         -1.29250        -9.58075         0.77108
C          0.03407       -10.32807         0.52261
C          1.17130        -9.41549         0.07008
C          2.03459        -9.81083        -0.89053
C          3.08685        -8.93532        -1.53926
C          4.42313        -9.64115        -1.74891
C          5.58383        -8.96644        -1.84403
O          6.46106        -3.55215         1.11008
O          2.92020         0.99077        -0.05119
O          5.03353        -0.96010         2.36110
O         -6.09585        -0.98538         0.32271
O         -3.64664         5.37876        -2.22721
O          3.30996        -4.58864        -0.89875
O          6.16378         7.94537         2.10914
O         -1.39092         7.89875         2.48119
O          8.35123        -0.54303        -2.61316
O         -9.39988        -1.44580        -2.08271
O          3.83741         9.41735         2.22044
O          6.54966         4.62343         2.37778
O          0.66730         1.39092         2.88492
O          6.16142        -2.57127        -2.39327
O         -2.71831        -6.59888        -0.45658
O          0.38485         6.67435        -0.53789
O         -2.12437        -3.54728         2.71023
O         -3.96243        -8.28532         2.51296
O         -0.22744         4.31826        -0.98535
O         -3.43678         3.04877        -2.42919
O         -6.24476        -4.21825        -1.62376
O         -6.38733         2.42890        -0.16414
O          0.68000        -3.70483         2.85124
O         -3.92491         7.73547        -2.09499
O         -5.10889        -7.51052        -0.85503
O         -1.72220         0.34316         2.64761
O          4.65100        -6.84159        -2.70382
O          0.84587        -7.82685         2.04481
O          3.73033        -8.05094         0.67758
O          1.12461         4.58655         2.68081
O          5.06646         2.37983        -0.31249
O          8.69092         3.32578         1.58935
O          0.82011        -5.35499        -0.38397
O          5.44325        -3.88477        -2.41529
O          2.86384        -2.34066         2.93911
O         -5.79469         0.54941        -3.09459
O         -3.70654         7.02320         1.43649
O         -9.14222         1.10409        -2.30139
O         -1.38316        -8.99896         2.10953
O         -1.89243         0.11060        -0.81144
O          7.54353         0.77379         1.68663
O          4.34384         5.63479        -0.18980
O         -6.18384        -5.45576         1.90434
O          2.55050         6.71095         2.75855
O          1.92159         8.60355        -0.40103
O          0.67942        -1.08614         3.18501
O         -3.76596        -0.76708         1.92052
O          8.34818         1.93355        -1.93988
O         -3.74273        -5.32425         2.77039
H         -4.63089        -5.16890         3.15964
O          2.87824        -6.13723         2.47424
H          3.50872        -6.88306         2.55717
O         -1.08507         2.17357        -1.80593
H         -1.73390         1.69363        -2.37841
O         -9.12578        -3.98897        -2.16951
H         -8.49059        -4.58007        -2.62593
O          4.49640        -4.27024         2.57917
H          4.33579        -3.58410         3.26687
O         -0.91559         3.39000         2.33375
H         -0.56023         3.07201         3.19351
O         -8.35746         3.57666        -3.11558
H         -8.82344         2.73461        -3.32187
O         -7.10862         5.75319        -3.62524
H         -4.25677         7.33234        -2.92593
O         -9.05946        -4.90150         1.31524
H         -8.28087        -5.12083         1.87137
O         -2.87029         4.74105         1.29355
H         -3.57463         5.28473         1.72682
O         -1.39528        -4.40991        -0.62638
H         -1.51535        -5.14404        -1.27075
O         -6.37715        -2.24464        -3.10351
H         -7.07041        -2.74772        -3.57809
O          2.54873        -8.55512        -2.82246
H          3.19940        -7.94192        -3.24365
O         -4.18039         9.41535         1.89789
H         -3.59166         8.79334         2.39115
O          8.66559         6.11179         1.58016
H          8.75731         5.21745         1.99170
O         -3.34441         0.65151        -2.61311
H         -3.89949         0.89112        -3.39014
O         -5.83400         4.80040         0.62457
H         -6.27948         3.99942         0.98789
O         -0.16715       -11.37209        -0.42518
H         -0.36368       -10.97709        -1.29945
H         11.58995        -0.88566        -2.18157
H         11.71920         1.51522        -1.92069
H         11.13043         3.44152        -0.72128
H          8.15152         5.73593        -1.67188
H          7.79967         7.75449        -0.89268
H          6.93923        10.04806        -0.40427
H          4.79430        11.15878        -0.37607
H          2.26143        10.75740        -0.47328
H         -0.22063        11.22176         0.52304
H         -2.57304        11.02931         0.09550
H         -5.09909        11.01481        -0.07641
H         -6.88877         9.83715        -1.20739
H         -7.87443         8.02485        -2.10094
H         -7.84846         5.31669        -0.51439
H         -9.28883         3.51800         0.06713
H        -10.87055         1.52403         0.58903
H        -11.07380        -0.75340         0.81096
H         -9.71642        -2.90286         0.92743
H         -9.59067        -5.68734        -0.53371
H         -8.38564        -7.84823        -0.44809
H         -7.12999       -10.08744        -0.20372
H         -5.02552       -11.32267         0.09604
H         -2.53024       -11.20376        -0.10766
H          0.33256       -10.81665         1.48519
H          1.90073       -10.81132        -1.33286
H          4.42496       -10.73812        -1.83804
H          6.52889        -9.50973        -1.99820
H          7.86475        -7.33975        -1.90731
H          9.16308        -5.23594        -1.74568
H         10.38273        -3.08773        -1.82884
