         429
 CSIRO Nanostructure Databank - Neutral Graphene Oxide Data Set
C          1.15200         4.02095         2.14443
C         -0.03376         4.70058         1.89021
C          1.18494         6.51914         0.79641
C         -0.02738         5.93400         1.23166
C          1.22668         7.80688         0.09736
C          0.02910         8.53441        -0.20842
C          1.25968        10.35231        -1.34905
C          0.02421         9.75659        -0.82500
C          1.32558        11.81313        -1.84138
C          0.01930        12.55004        -1.79335
C          1.15315        14.70455        -1.59971
C          0.01258        13.93361        -1.83930
C          1.10586        16.16885        -1.96004
C         -0.00380        16.90717        -1.21828
C          1.01519        19.00571        -2.01526
C         -0.03310        18.24494        -1.22733
C          1.03588        20.52588        -1.78493
C         -0.16763        21.22295        -1.31025
C          1.10098        23.30388        -0.93052
C         -0.12423        22.53406        -0.96183
C          1.06616        24.73024        -0.64620
C         -0.08420        25.42142        -0.37642
C          1.05543        27.57836        -0.12683
C         -0.09082        26.84790        -0.16783
C          1.09717        28.96199         0.48812
C         -0.11199        29.83053         0.22012
C          1.14742        31.92803         0.59678
C         -0.10870        31.16341         0.36484
C          1.13640        33.27354         1.25335
C          0.00764        34.06348         1.30070
C          1.24084        36.12211         1.83566
C          0.04905        35.45484         1.61622
C          1.34654        37.55585         1.94334
C          3.62054         3.90782         2.01604
C          2.39248         4.57860         1.73815
C          3.68601         6.33911         0.49182
C          2.39164         5.83421         1.06553
C          3.69314         7.82206         0.24588
C          2.47747         8.42722        -0.13641
C          3.76781        10.52096        -0.75702
C          2.54613         9.70057        -0.88545
C          3.69265        11.95176        -0.93854
C          2.47745        12.58267        -1.22798
C          3.64644        14.81219        -1.25653
C          2.36173        14.06927        -0.97992
C          3.62810        16.20076        -1.48444
C          2.39925        16.93725        -1.72397
C          3.55399        19.10809        -1.53814
C          2.36484        18.32283        -1.77610
C          3.58924        20.49751        -1.48754
C          2.34304        21.27911        -1.62346
C          3.59469        23.37058        -0.97100
C          2.32669        22.67536        -1.14094
C          3.61628        24.77517        -0.80721
C          2.31221        25.52669        -0.97770
C          3.55256        27.72153        -0.73315
C          2.38610        26.85603        -0.21135
C          3.59569        29.05790        -0.01874
C          2.40942        29.67953         0.26496
C          3.69024        31.67406         1.07310
C          2.41214        31.13417         0.54475
C          3.69780        33.07218         1.57037
C          2.40470        33.82425         1.75830
C          3.76263        36.03754         1.93193
C          2.47287        35.33844         2.00983
C          3.80442        37.43967         2.00708
C          2.55504        38.17657         2.07636
C          6.09733         3.91622         2.18230
C          4.87588         4.52861         1.79293
C          6.10453         6.55775         1.13161
C          4.90556         5.82677         1.19589
C          6.10971         7.90517         0.62465
C          4.92618         8.52726         0.18604
C          6.08526        10.73670        -0.02055
C          4.92683         9.93456        -0.23291
C          6.08992        12.12279        -0.28934
C          4.88806        12.74250        -0.72184
C          6.11198        14.86672        -1.01246
C          4.87531        14.14634        -0.99687
C          6.09072        16.27315        -1.22175
C          4.85131        16.92046        -1.39123
C          6.10824        19.13109        -1.27672
C          4.78978        18.37107        -1.23979
C          6.07572        20.58219        -1.45846
C          4.81970        21.23849        -1.31407
C          6.09950        23.29245        -0.82816
C          4.80714        22.63180        -1.07811
C          6.11494        24.80354        -0.61950
C          4.82479        25.52394        -0.71429
C          6.08418        27.63605        -0.57150
C          4.84777        26.93321        -0.65449
C          6.11108        29.03438        -0.23917
C          4.88045        29.74576         0.08926
C          6.17506        31.75888         0.78567
C          4.93508        31.04705         0.57252
C          6.21812        33.06392         1.21097
C          4.95377        33.83955         1.31022
C          6.28290        35.97519         1.71601
C          4.98277        35.30993         1.56769
C          6.28313        37.39005         1.90050
C          5.05429        38.10524         1.98605
C          8.56952         3.93601         2.35334
C          7.33229         4.57959         2.02426
C          8.54359         6.68246         1.52494
C          7.32235         5.93466         1.54961
C          8.55829         8.03553         1.24999
C          7.40754         8.65605         0.50812
C          8.44182        11.00738         0.96133
C          7.22601        10.14825         0.69300
C          8.51954        12.32186         0.30269
C          7.32673        12.88583        -0.20118
C          8.58130        14.94407        -0.76138
C          7.34451        14.22704        -0.68218
C          8.59320        16.30325        -1.20008
C          7.33758        17.00321        -1.33472
C          8.50636        19.08477        -2.04429
C          7.32100        18.37798        -1.55602
C          8.47573        20.60261        -2.23701
C          7.28383        21.28593        -1.60928
C          8.55717        23.39032        -1.40668
C          7.33575        22.65875        -1.31778
C          8.57530        24.81132        -1.16127
C          7.37743        25.52031        -0.87189
C          8.54272        27.68938        -0.78824
C          7.33464        26.94310        -0.74263
C          8.53749        29.07655        -0.59302
C          7.34092        29.71616        -0.18111
C          8.51639        31.96257        -0.02188
C          7.47314        31.02721         0.56327
C          8.68570        33.25833         0.69298
C          7.53239        33.72952         1.57450
C          8.70968        35.93736         1.69518
C          7.48323        35.24996         1.62715
C          8.72285        37.33119         1.93641
C          7.53205        38.04594         2.02637
C         11.05601         3.91968         2.36921
C          9.81845         4.55432         2.16092
C         11.11125         6.72304         1.65627
C          9.81768         5.93954         1.64069
C         11.05967         8.17821         1.69119
C          9.76775         8.83636         1.52830
C         10.98244        11.14201         1.35452
C          9.70540        10.35003         1.44905
C         11.00142        12.40406         0.58748
C          9.77560        12.99551         0.15683
C         11.04936        15.02209        -0.52255
C          9.80676        14.31539        -0.39934
C         11.05288        16.36564        -1.02892
C          9.81926        16.99157        -1.33834
C         11.06716        19.15618        -1.86660
C          9.82614        18.35704        -1.89148
C         11.01766        20.55725        -2.03254
C          9.79468        21.29429        -1.93658
C         11.00207        23.47959        -1.95448
C          9.76927        22.68558        -1.72546
C         11.03892        24.90152        -1.52433
C          9.83605        25.52760        -1.21432
C         11.12001        27.73127        -0.85421
C          9.83045        26.95630        -0.82270
C         11.07866        29.22116        -0.89767
C          9.72584        29.88222        -1.08741
C         10.95861        32.16757        -0.84241
C          9.68004        31.37276        -0.74360
C         10.96588        33.62384        -0.33178
C          9.84477        33.95465         0.65104
C         11.19402        36.00668         1.27980
C          9.99761        35.14635         1.59225
C         11.23257        37.35333         1.67763
C         10.01400        38.05135         2.22779
C         13.53890         3.89721         2.27695
C         12.31323         4.58599         2.19167
C         13.55966         6.69322         1.85128
C         12.35490         6.00729         1.97715
C         13.59171         8.17819         1.87546
C         12.26461         8.95298         1.94942
C         13.53797        11.05085         1.14587
C         12.28903        10.42428         1.62764
C         13.48229        12.38895         0.73852
C         12.24031        13.06317         0.41308
C         13.51015        15.09187        -0.34448
C         12.27042        14.38865        -0.14348
C         13.49808        16.38289        -0.93719
C         12.29380        17.07021        -1.24717
C         13.51941        19.21626        -1.71226
C         12.29684        18.45776        -1.66574
C         13.54593        20.60150        -1.90291
C         12.30039        21.24806        -2.46879
C         13.58716        23.52370        -2.41531
C         12.25769        22.77422        -2.36513
C         13.51194        24.93094        -1.84825
C         12.30713        25.60610        -1.55829
C         13.47180        27.78287        -1.62322
C         12.34610        27.03747        -1.31482
C         13.44732        29.26025        -1.59481
C         12.21873        29.93347        -1.10594
C         13.54019        32.07187        -0.72782
C         12.24141        31.42727        -1.07218
C         13.53282        33.38368        -0.13506
C         12.32606        34.06887         0.18094
C         13.59380        36.07569         0.89691
C         12.37493        35.37926         0.78237
C         13.64737        37.41793         1.35133
C         12.43289        38.07300         1.65709
C         16.00290         3.85820         1.95951
C         14.76761         4.55434         2.01525
C         15.97206         6.62147         1.34780
C         14.77947         5.96725         1.77590
C         15.88093         8.03702         0.89575
C         14.74968         8.87136         1.30587
C         16.00057        10.92249         0.77569
C         14.75888        10.26628         1.08271
C         16.05138        12.39091         0.79554
C         14.73145        13.16704         0.68649
C         15.99341        15.15707        -0.13490
C         14.76140        14.50015         0.04932
C         16.03697        16.43102        -0.75058
C         14.78869        16.99774        -1.27358
C         16.04424        19.22745        -1.51573
C         14.79257        18.48902        -1.65374
C         16.01860        20.64585        -1.61520
C         14.77873        21.34208        -1.82043
C         15.99505        23.49659        -1.77471
C         14.79533        22.76105        -1.91457
C         15.98808        24.94592        -1.85465
C         14.75080        25.63169        -1.87984
C         16.03504        27.87551        -2.01170
C         14.70204        27.09399        -2.02743
C         16.01183        29.30049        -1.66536
C         14.75647        30.06492        -1.63929
C         15.99140        32.04208        -0.66474
C         14.75404        31.42604        -1.01491
C         16.00488        33.30585        -0.01233
C         14.78961        33.98125         0.18976
C         15.96738        35.76231         1.52873
C         14.88888        35.44919         0.49241
C         16.08498        37.27073         1.68895
C         14.91581        38.05057         1.55120
C         18.43775         3.80359         1.58122
C         17.18453         4.51224         1.59358
C         18.39050         6.51217         0.59114
C         17.16046         5.90556         1.23874
C         18.44723         8.01894         0.68840
C         17.19225         8.75331         0.52865
C         18.45993        10.89111         0.51926
C         17.20099        10.21924         0.60937
C         18.47727        12.32960         0.34904
C         17.29170        13.05642         0.40129
C         18.53178        15.14291        -0.23536
C         17.28920        14.56701         0.40325
C         18.52195        16.45455        -0.72247
C         17.25281        17.14374        -0.94878
C         18.52011        19.19344        -1.75543
C         17.24660        18.49873        -1.35438
C         18.49252        20.68432        -1.51049
C         17.25516        21.38044        -1.56168
C         18.46716        23.52920        -1.51971
C         17.23633        22.80400        -1.60026
C         18.45992        24.96212        -1.55153
C         17.23028        25.67787        -1.74202
C         18.49065        27.79805        -1.58447
C         17.26900        27.09824        -1.77361
C         18.54360        29.27061        -1.73439
C         17.25836        30.03250        -1.69817
C         18.53919        32.06757        -0.66002
C         17.26250        31.49519        -1.13945
C         18.51710        33.31921         0.02605
C         17.26709        33.94323         0.34656
C         18.46733        35.71013         1.56255
C         17.27677        35.13387         1.10792
C         18.38448        36.85207         2.55254
C         17.27408        37.78475         2.16574
C         19.63043         4.46566         1.37004
C         20.85799         6.58272         1.08103
C         19.66198         5.84236         1.04074
C         20.87250         7.95816         0.90964
C         19.65699         8.70523         0.73935
C         20.89339        10.87008         0.46439
C         19.67401        10.16020         0.57912
C         20.92274        12.23925         0.24593
C         19.74053        13.00329         0.15380
C         20.96307        15.05950        -0.52143
C         19.75030        14.40211        -0.17233
C         20.97401        16.38804        -0.86860
C         19.76239        17.12673        -0.99249
C         20.96154        19.27713        -1.25989
C         19.77825        18.51404        -1.29288
C         20.93851        20.65523        -1.37259
C         19.71016        21.38683        -1.43889
C         20.90646        23.56430        -1.28412
C         19.69791        22.82689        -1.40396
C         20.89767        24.93567        -1.25510
C         19.68288        25.66744        -1.37649
C         20.88017        27.82064        -0.95233
C         19.69110        27.10006        -1.34662
C         20.93281        29.17308        -0.87922
C         19.82904        30.00723        -1.37776
C         20.96654        32.08765        -0.58512
C         19.76364        31.42013        -0.90229
C         20.95849        33.33578         0.01449
C         19.74569        33.95475         0.38430
C         20.90252        35.89428         1.47374
C         19.73073        35.19420         1.14136
C         20.84643        37.11317         2.20254
C         19.67501        37.59282         2.71386
O          4.79745        34.73152         0.14914
O         15.44157        13.05816         1.98049
O         13.05704         8.66544         3.15503
O         13.90734        29.91271        -2.82712
O         14.87819        17.42821        -2.67040
O          9.12792        18.42676        -3.20216
O          2.02145         9.48700        -2.26451
O         11.51728        32.07238        -2.20316
O          9.52943         9.74099         2.74046
O          8.57328        32.02809        -1.46770
O         16.29141         8.21203        -0.51377
O          2.35359        34.36243         3.11464
O          1.97840        31.92977        -0.63546
O          5.45899        18.78664         0.00531
O          3.79828        31.96302         2.51731
O         11.38410        23.33319        -3.41010
O         10.60804        27.20205         0.42791
O         17.23776        31.19984        -2.57101
O         15.33103        27.56415        -3.26220
O          7.39206        10.81218         1.97439
O          6.20434        23.87749         0.51983
O         19.46185        29.74318        -2.76760
O         10.55838         6.12250         0.38174
O          1.67433        21.17196        -2.94912
O         11.64543        11.25257         2.65218
O          7.82931         8.57442        -0.91172
H          7.86039         7.62467        -1.15881
O         15.58590        35.20270         2.80284
H         16.28452        35.47463         3.44935
O         18.25562         6.22353        -0.85283
H         17.47768         6.75019        -1.15927
O          8.28204        20.82107        -3.67027
H          8.80544        20.11909        -4.12547
O          2.15483        14.20478         0.49234
H          2.98250        13.90953         0.93054
O         10.70109        34.47272        -1.48657
H         11.01139        33.97546        -2.27892
O          2.17822        25.79640        -2.41221
H          2.07612        24.93236        -2.86591
O         15.34218        36.09305        -0.74281
H         14.67963        35.90566        -1.44046
O         13.88164        23.72409        -3.83140
H         13.03048        23.97336        -4.26000
O          7.84022        33.28398         2.94212
H          7.93929        32.29811         2.89297
O          3.76369         5.73783        -0.87421
H          3.00913         6.10202        -1.38675
O          1.08440        28.71411         1.93898
H          1.81482        28.07325         2.11485
O         18.01221        36.25597         3.87133
H         18.77015        35.70488         4.16252
O          2.73260        26.54688         1.17200
H          2.11448        25.85297         1.48723
O         12.38025        20.95790        -3.90038
H         11.78231        21.60176        -4.34501
O          1.64639        11.77097        -3.27065
H          2.07167        10.89015        -3.42609
O          9.58123        29.81111        -2.54301
H         10.09646        30.56013        -2.92352
O          3.35261        28.10521        -2.11172
H          3.07854        27.30657        -2.62268
O          8.00463        30.67332         1.89321
H          7.40814        29.99918         2.28503
O         10.27145        34.58906         2.91631
H          9.45192        34.10098         3.19493
O          9.96384        39.40780         1.76804
H          9.86979        39.39767         0.79355
O         17.36415        14.97262         1.81508
H         16.65781        14.45844         2.28205
O         18.56144        19.06147        -3.23457
H         17.70870        19.40357        -3.58102
O          0.80407        16.18293        -3.37882
H          0.67757        17.12883        -3.65057
O          0.66348        18.85738        -3.42344
H          1.14687        19.57125        -3.90334
H          1.13811         3.05250         2.66432
H         -0.99130         4.26626         2.21021
H         -0.98545         6.43981         1.05285
H         -0.93595         8.12346         0.11929
H         -0.92024        10.31189        -0.90668
H         -0.89735        12.00789        -2.06647
H         -0.91908        14.45073        -2.11811
H         -0.77253        16.33091        -0.68170
H         -0.83188        18.78727        -0.70052
H         -1.12051        20.67939        -1.24873
H         -1.05873        23.02446        -0.65769
H         -1.04384        24.89805        -0.26602
H         -1.06324        27.32241         0.02682
H         -1.06397        29.32527        -0.00196
H         -1.04211        31.72767         0.21618
H         -0.95848        33.64696         0.98127
H         -0.88718        36.02889         1.55862
H          0.42069        38.14965         1.92331
H          3.58816         2.91972         2.49887
H          2.60458        39.27143         2.16550
H          6.07811         2.89974         2.60259
H          5.08143        39.20169         2.06479
H          8.53784         2.89683         2.71390
H          7.56757        39.12805         2.21839
H         11.06635         2.86080         2.66767
H         10.12344        38.10588         3.34694
H         13.54150         2.81525         2.47541
H         12.43589        39.12182         1.98802
H         16.02584         2.77999         2.17766
H         14.95013        39.12633         1.78267
H         18.43867         2.73575         1.84346
H         17.40431        38.86980         2.29948
H         20.58319         3.93301         1.51193
H         21.79936         6.05761         1.30301
H         21.83466         8.48312         0.96336
H         21.84947        10.33420         0.52083
H         21.90240        12.72446         0.14506
H         21.91433        14.51257        -0.49664
H         21.93325        16.86502        -1.10814
H         21.92832        18.78879        -1.07539
H         21.89495        21.19124        -1.33376
H         21.86940        23.04485        -1.20529
H         21.85425        25.46503        -1.16526
H         21.74610        27.25097        -0.59042
H         21.80924        29.65390        -0.42318
H         21.92986        31.62139        -0.83067
H         21.91826        33.82091         0.23526
H         21.88341        35.53653         1.13551
H         21.78170        37.66831         2.36639
H         19.66367        38.52509         3.29715
