         618
 CSIRO Nanostructure Databank - Neutral Graphene Oxide Data Set
C         22.91791        69.81194        -1.22010
C         22.95451        71.22744        -1.23219
C         21.77549        71.99288        -1.46343
C         23.03320        74.05916        -1.27889
C         21.82271        73.37941        -1.47861
C         25.16767        65.42407        -0.53341
C         25.15856        66.85182        -0.57099
C         24.05628        67.61957        -0.97764
C         25.31618        69.76603        -0.79726
C         24.08310        69.05798        -0.99628
C         25.37967        71.17029        -0.75707
C         24.18977        71.91488        -1.00556
C         25.47522        74.02067        -0.89053
C         24.22548        73.34692        -1.04519
C         27.66787        61.21482         0.07989
C         27.60166        62.59316         0.24712
C         26.39633        63.29700        -0.10057
C         27.37705        65.44097         0.59233
C         26.27876        64.69227        -0.05681
C         27.41516        66.89481         0.42383
C         26.36652        67.55682        -0.18542
C         27.75845        69.72650        -0.04216
C         26.51772        68.97215        -0.53796
C         27.79632        71.21441        -0.13520
C         26.64466        71.87365        -0.52151
C         27.90804        74.02840        -0.61025
C         26.66694        73.33004        -0.67360
C         30.29512        56.98899         0.08500
C         30.24998        58.41438         0.14014
C         29.03554        59.07583        -0.05716
C         30.18862        61.28003         0.54392
C         28.88311        60.46809         0.34817
C         30.07051        62.74394         0.53813
C         28.82545        63.32903         0.56125
C         29.92234        65.57447         1.12843
C         28.70771        64.75936         0.87811
C         29.66420        66.86958         1.51955
C         28.49922        67.60132         1.04503
C         30.49755        70.22425         1.07843
C         28.56371        68.98500         0.91800
C         30.39845        71.35549         0.28738
C         29.14863        71.85352        -0.43225
C         30.36770        74.02175        -0.67413
C         29.13487        73.36554        -0.50394
C         32.74915        52.77602         0.14992
C         32.74490        54.19044         0.36221
C         31.52345        54.88514         0.33344
C         32.64675        57.04854         0.84336
C         31.45331        56.29308         0.41468
C         32.67116        58.50787         0.64299
C         31.47575        59.15419         0.35276
C         32.71451        61.35370         0.49482
C         31.47014        60.62526         0.04074
C         32.66511        62.83321         0.44001
C         31.32713        63.54509         0.45983
C         32.60977        65.75353         0.97998
C         31.27958        65.03191         0.78360
C         32.74236        67.21567         1.30610
C         31.68550        68.08236         1.56443
C         32.86054        69.95022         0.51834
C         31.70147        69.45264         1.17044
C         32.84497        71.27340        -0.02906
C         31.62558        71.96190        -0.15297
C         32.83646        73.93131        -0.97524
C         31.61031        73.32234        -0.64232
C         35.26151        48.64783        -0.50668
C         35.13889        49.95226        -0.00677
C         33.96176        50.67411        -0.20258
C         35.22516        52.80334         0.02456
C         33.93215        52.07440         0.03555
C         35.23323        54.24235         0.31963
C         33.98961        54.88493         0.50612
C         35.22049        57.07243         0.68896
C         33.98321        56.30260         0.86733
C         35.14797        58.48101         0.68095
C         33.92312        59.20615         0.70893
C         35.16623        61.38724         0.75339
C         33.92485        60.66602         0.65981
C         35.19775        62.88262         0.48057
C         33.89543        63.60301         0.75448
C         35.15318        65.67760         1.14140
C         33.88603        64.96042         0.97277
C         35.19431        67.06389         1.04832
C         33.96998        67.81950         0.90082
C         35.28380        69.64049        -0.16828
C         34.01951        69.14904         0.47415
C         35.29167        71.14249        -0.37141
C         34.08019        71.86773        -0.45350
C         35.30308        73.81417        -1.29957
C         34.06463        73.22900        -0.90077
C         38.17990        45.04946        -2.10754
C         37.94187        46.14645        -1.28924
C         36.68481        46.79015        -1.19707
C         37.50931        48.43176         0.51861
C         36.46230        47.92670        -0.40424
C         37.50227        49.85586         1.02593
C         36.22753        50.64748         0.80055
C         37.71496        52.71706         0.73089
C         36.49688        52.03411         0.28827
C         37.79412        54.17862         0.36240
C         36.45854        54.91239         0.50744
C         37.69874        57.01402         0.73354
C         36.45753        56.33911         0.62065
C         37.71955        58.46706         0.56193
C         36.39393        59.23850         0.47017
C         37.63889        61.35899         0.83376
C         36.39971        60.69507         0.72689
C         37.62673        62.78073         1.25303
C         36.38958        63.57114         1.10239
C         37.62891        65.63064         1.82678
C         36.38757        64.92616         1.28854
C         37.64330        67.15846         1.65102
C         36.42692        67.83031         1.10886
C         37.80904        69.68055         0.10524
C         36.48613        69.08664         0.54989
C         37.76211        71.14411        -0.31793
C         36.51259        71.77809        -0.67287
C         37.75736        73.71593        -1.75176
C         36.49283        73.11654        -1.18839
C         41.17630        41.63720        -4.11389
C         40.91136        42.64961        -3.10669
C         39.67805        43.27258        -3.04532
C         40.46260        44.73393        -1.25099
C         39.45239        44.37233        -2.13928
C         40.17596        45.74610        -0.23423
C         39.11703        46.77910        -0.58363
C         39.95991        48.31304         1.22310
C         38.73951        47.57891         0.65806
C         39.92145        49.72510         1.91770
C         38.76626        50.56070         1.35244
C         40.06148        52.69613         1.56388
C         38.83670        51.97985         1.21424
C         40.07334        54.15735         1.52298
C         38.93509        54.88455         1.05095
C         40.09520        57.05110         1.32845
C         38.90726        56.30492         1.04908
C         40.10325        58.49181         1.22015
C         38.92319        59.21615         0.90785
C         40.12172        61.35282         0.98634
C         38.89530        60.64394         0.89010
C         40.11665        62.83539         0.67733
C         38.93675        63.53577         1.30881
C         40.13215        65.70590         1.22457
C         38.93515        65.01320         1.34219
C         40.19727        67.16197         1.30993
C         38.93698        67.91770         1.55535
C         40.18385        70.11389         1.01841
C         38.83199        69.43354         1.24488
C         40.21177        71.34415         0.13140
C         38.95614        71.82336        -0.50228
C         40.23297        73.53232        -1.69858
C         39.02397        73.03231        -1.28881
C         43.94130        38.03915        -5.83345
C         43.87476        39.24038        -5.14704
C         42.76104        40.22076        -5.46850
C         43.55379        41.67017        -3.52772
C         42.42795        41.15581        -4.32817
C         43.25656        42.55190        -2.38225
C         41.97747        43.02984        -2.20089
C         42.82044        44.56909        -0.32134
C         41.63734        43.83305        -0.96758
C         42.64164        45.66206         0.51991
C         41.23479        46.14765         0.74272
C         42.77809        48.44215         2.08837
C         40.93666        47.40635         1.48932
C         42.55846        49.87806         2.48787
C         41.25405        50.53171         1.94109
C         42.38266        52.66385         2.63922
C         41.22473        51.93057         1.93792
C         42.38198        54.21039         2.52402
C         41.21212        54.91476         1.93804
C         42.47959        57.09440         1.88107
C         41.27366        56.34257         1.73576
C         42.52690        58.48952         1.60061
C         41.32119        59.21449         1.35288
C         42.57596        61.33909         1.17760
C         41.33902        60.64385         1.17067
C         42.64328        62.79022         0.73882
C         41.38917        63.58071         0.97306
C         42.65889        65.70566         1.14648
C         41.39658        64.95483         1.09327
C         42.64658        67.10663         1.15763
C         41.40115        67.83785         1.17579
C         42.73511        70.03469         0.96400
C         41.45098        69.33684         1.43952
C         42.73852        71.36123         0.15385
C         41.47943        71.86233        -0.39090
C         42.71505        73.45461        -1.77183
C         41.48756        72.92154        -1.31454
C         46.21252        35.09942        -6.22016
C         45.12625        35.93566        -6.38830
C         46.04450        37.46263        -4.69248
C         45.02547        37.13900        -5.63894
C         45.94994        38.68376        -3.95005
C         44.89142        39.56826        -4.20284
C         45.74929        41.08767        -2.35150
C         44.83656        40.86029        -3.48620
C         45.53399        42.15251        -1.48171
C         44.30604        42.89345        -1.45427
C         45.26978        44.47518         0.14465
C         44.11646        43.94236        -0.51075
C         45.18233        45.75020         0.88981
C         43.82846        46.36333         1.15390
C         45.14968        48.49647         1.87608
C         43.83522        47.84768         1.46894
C         45.04141        50.01057         1.92912
C         43.81571        50.67516         2.19775
C         44.97258        52.81437         2.45347
C         43.76076        52.06880         2.35058
C         44.97672        54.26339         2.60454
C         43.67636        54.98676         2.67491
C         44.99950        57.10382         2.04189
C         43.70480        56.51804         2.54729
C         45.01595        58.46803         1.67394
C         43.77554        59.18854         1.53838
C         45.03170        61.27426         1.16146
C         43.79139        60.60748         1.31228
C         45.12871        62.72479         1.32590
C         43.84624        63.50902         1.29767
C         45.15617        65.59731         1.19432
C         43.90890        64.98081         1.16923
C         45.22670        67.05984         1.31704
C         43.92293        67.84769         1.31685
C         45.17809        69.90658         0.58337
C         43.98511        69.27803         0.91140
C         45.20224        71.19292        -0.08841
C         43.99717        71.79524        -0.46019
C         45.16849        73.48753        -1.80323
C         43.96046        72.91759        -1.36881
C         47.22852        35.42615        -5.29717
C         48.25347        36.87931        -3.54187
C         47.15399        36.58405        -4.53322
C         48.15538        38.23293        -2.87914
C         47.00639        39.04279        -3.00931
C         47.97241        40.61029        -1.36750
C         46.90070        40.22732        -2.22887
C         47.87906        41.83806        -0.63035
C         46.51348        42.39790        -0.35987
C         47.71968        44.54180         0.33596
C         46.50611        43.84272         0.05250
C         47.67182        45.92155         0.60114
C         46.42966        46.56172         0.89884
C         47.60878        48.65417         1.34647
C         46.38886        47.91544         1.23878
C         47.51920        50.09550         1.60509
C         46.22957        50.75368         1.94001
C         47.46843        52.79947         2.64205
C         46.20674        52.12029         2.29668
C         47.44664        54.31142         2.74800
C         46.16107        54.99164         2.53958
C         47.45736        57.08630         2.09596
C         46.20645        56.41114         2.23881
C         47.48771        58.43442         1.63187
C         46.26446        59.09827         1.40849
C         47.56386        61.24297         0.87495
C         46.25271        60.50053         0.96793
C         47.59635        62.71975         1.01342
C         46.40736        63.44069         1.14951
C         47.63939        65.56479         0.98917
C         46.40663        64.86973         1.12433
C         47.66451        67.01652         0.85629
C         46.48554        67.73812         0.97102
C         47.74995        69.87970         0.41446
C         46.46706        69.20789         0.84290
C         47.67274        71.19374        -0.25463
C         46.45833        71.80304        -0.51471
C         47.59648        73.61454        -1.80449
C         46.42448        73.00649        -1.34658
C         49.22992        38.65865        -2.07709
C         50.30932        40.27875        -0.46000
C         49.16702        39.84965        -1.35108
C         50.29255        41.75870        -0.13998
C         49.02942        42.46301        -0.13630
C         50.18260        44.51233         0.59019
C         48.98877        43.84277         0.26892
C         50.18710        45.93052         0.83258
C         48.94777        46.72434         0.47915
C         50.07981        48.73674         1.53219
C         48.86548        48.07698         1.13709
C         50.04233        49.99399         2.09816
C         48.81615        50.76943         1.97308
C         49.96713        52.81945         2.59023
C         48.77913        52.14327         2.47640
C         49.98591        54.28259         2.27654
C         48.71611        55.04133         2.56971
C         49.98039        57.19410         2.44108
C         48.70270        56.38794         2.33986
C         50.03435        58.28517         1.37741
C         48.76023        59.12381         1.40037
C         50.05297        61.19069         0.83910
C         48.79304        60.46399         1.12084
C         50.07098        62.66474         0.89948
C         48.84894        63.40200         0.96922
C         50.12035        65.51352         0.84450
C         48.86252        64.83165         0.94591
C         50.14265        66.94383         0.58882
C         48.92487        67.68343         0.55441
C         50.15227        69.67430        -0.25119
C         48.96272        69.05934         0.21809
C         50.17546        71.07433        -0.64650
C         48.94591        71.86669        -0.52341
C         50.15023        73.67014        -1.95678
C         48.90856        73.23025        -1.32251
C         51.43727        42.39833         0.25961
C         52.60367        44.45495         0.97166
C         51.42972        43.79080         0.62373
C         52.59927        45.84120         1.28708
C         51.35447        46.57154         1.18216
C         52.45786        48.48746         2.34951
C         51.42022        48.07873         1.28383
C         52.50887        49.97768         2.58619
C         51.17395        50.61411         2.89433
C         52.40398        52.80956         2.93477
C         51.21968        52.12232         2.74171
C         52.45251        54.25286         2.80611
C         51.25905        54.98580         2.63504
C         52.49439        57.05168         2.32969
C         51.26829        56.38150         2.45898
C         52.49373        58.45403         1.93977
C         51.32181        59.06947         1.53574
C         52.57721        61.23506         1.23995
C         51.35634        60.44836         1.04764
C         52.55964        62.61753         1.03726
C         51.30570        63.34245         0.90294
C         52.60510        65.46983         0.90309
C         51.31275        64.77029         0.88397
C         52.63892        66.94532         0.54206
C         51.35272        67.60395         0.27991
C         52.60508        69.51868        -0.65319
C         51.36690        68.92793        -0.22457
C         52.53548        70.84238        -1.30404
C         51.31722        71.65564        -1.18265
C         52.60807        73.62509        -2.10144
C         51.34569        73.00211        -1.73927
C         53.79264        46.51679         1.60143
C         54.95831        48.59489         2.19888
C         53.79665        47.87380         2.01586
C         54.94815        49.96919         2.63359
C         53.66811        50.65448         2.80488
C         54.92614        52.85667         3.61678
C         53.58657        52.02228         3.48969
C         54.93817        54.21985         2.90953
C         53.71399        54.93673         2.76806
C         54.96635        57.02885         2.33080
C         53.72552        56.33921         2.47085
C         54.98159        58.44723         2.06801
C         53.76199        59.15107         1.86486
C         55.02521        61.22853         1.47572
C         53.78469        60.53422         1.54504
C         55.04045        62.61371         1.14807
C         53.81576        63.31890         0.98349
C         55.05418        65.35702         0.39748
C         53.84455        64.70635         0.74106
C         55.03781        66.72994        -0.07563
C         53.87546        67.47688        -0.05992
C         55.06924        69.46345        -0.93205
C         53.82481        68.81940        -0.61387
C         55.06712        70.92308        -1.14321
C         53.82134        71.55919        -1.62894
C         55.10596        73.63345        -2.22482
C         53.83219        73.00758        -1.94317
C         56.12164        50.62245         2.89815
C         57.45321        52.74837         2.98278
C         56.19018        52.02703         3.32057
C         57.43699        54.21681         2.79155
C         56.16277        54.90097         2.72210
C         57.43554        56.99828         2.29947
C         56.18514        56.31014         2.43562
C         57.46448        58.40750         2.09576
C         56.22416        59.13348         1.96719
C         57.47634        61.24780         1.61048
C         56.24362        60.52831         1.68148
C         57.51649        62.59982         1.24885
C         56.27848        63.29879         0.97215
C         57.53500        65.23017         0.04770
C         56.25871        64.61634         0.46934
C         57.55033        66.59728        -0.55375
C         56.21733        67.26745        -0.87373
C         57.53651        69.42318        -1.03304
C         56.28922        68.77703        -0.84296
C         57.53728        70.76781        -1.63138
C         56.34632        71.63216        -1.46890
C         57.60276        73.58522        -2.37830
C         56.32223        72.97955        -2.09434
C         58.62740        54.87709         2.60801
C         59.89839        56.97555         2.24014
C         58.67643        56.29515         2.38796
C         59.94470        58.37791         2.05459
C         58.70552        59.08241         2.03355
C         60.04513        61.23751         1.61326
C         58.71569        60.54600         1.95074
C         59.97360        62.55444         0.98660
C         58.78186        63.24082         0.97268
C         59.99673        65.25137         0.04084
C         58.77995        64.72532         0.74078
C         59.99421        66.71165        -0.02174
C         58.78133        67.41648        -0.40217
C         60.04448        69.51237        -0.93975
C         58.78597        68.76849        -0.78709
C         60.05477        70.81733        -1.46317
C         58.84044        71.46704        -1.94420
C         60.09321        73.54843        -2.47267
C         58.81366        72.92950        -2.21708
C         61.19157        59.06167         1.80870
C         62.47190        61.10595         1.14817
C         61.26883        60.41597         1.48435
C         62.47208        62.41863         0.63052
C         61.14522        62.95125         0.11237
C         62.49170        65.12087        -0.58244
C         61.17334        64.43851        -0.24634
C         62.47287        66.61318        -0.69176
C         61.35670        67.45367        -0.28244
C         62.51973        69.44163        -1.16067
C         61.29700        68.83709        -0.76262
C         62.60261        70.90628        -1.24427
C         61.28243        71.62339        -1.46504
C         62.57102        73.46050        -2.59762
C         61.28672        72.91900        -2.18944
C         63.66416        63.12327         0.38758
C         65.04654        64.97927        -0.36779
C         63.77350        64.40506        -0.23644
C         65.32167        66.19031        -1.11229
C         63.41755        67.22924        -1.49100
C         64.88958        69.12684        -2.12250
C         63.59886        68.62818        -1.53521
C         64.96787        70.64364        -2.18060
C         63.93117        71.57205        -1.58393
C         65.07011        73.52311        -2.76857
C         63.76746        72.83893        -2.40357
C         66.25827        67.16609        -0.91230
C         67.34376        69.07582        -2.26760
C         66.18025        68.62353        -1.39019
C         67.28934        70.29290        -2.89658
C         66.11936        71.17057        -2.70206
C         67.32149        73.01661        -3.74184
C         66.21142        72.57218        -3.07462
C         68.41187        70.83127        -3.63775
C         68.41685        72.13300        -4.04153
O         37.12323        58.88222        -0.73599
O         49.05465        73.14774         0.13768
O         27.69767        64.97348         1.94014
O         52.74473        66.50670         1.93956
O         32.00428        63.30121        -0.83122
O         48.27693        50.82847         0.57583
O         33.23261        56.60214         2.10228
O         29.53971        60.68627         1.67671
O         61.95051        71.61610        -0.14361
O         42.85245        71.32226         1.62563
O         42.83136        54.70543         3.85051
O         44.62216        67.56768         2.57007
O         46.88534        60.78255        -0.35236
O         38.38615        62.93736         2.51377
O         61.67339        64.56610        -1.66907
O         55.02679        53.26573         5.01020
O         64.36928        66.42833        -2.13889
O         31.91156        65.74236        -0.33663
O         60.82332        67.28747         1.06107
O         38.08238        68.96737        -1.07442
O         59.51569        61.21701         2.98124
O         37.08541        48.73653         1.89875
O         44.51473        45.59527         2.21502
O         29.37556        69.72042         1.76743
O         44.35824        63.07345         2.57833
O         55.80080        71.65893        -0.10339
O         36.09524        52.34890        -1.09292
O         30.56939        67.62070         2.25511
O         47.41495        53.46910         3.95701
O         58.08726        70.73576        -2.98975
O         53.13518        70.79249        -2.66572
O         38.28496        67.71342         2.85781
O         27.70150        69.15787        -1.41078
O         41.77433        47.62008         2.57204
O         50.77002        60.61302        -0.31486
O         44.71215        42.05046        -4.35127
O         47.31046        69.90978         1.82306
O         40.24069        45.11487         1.10410
O         57.73127        65.38342        -1.39827
O         40.17891        71.42983         1.63123
O         43.65079        57.05747         3.91305
H         43.05405        56.45990         4.42326
O         64.88587        74.45979        -3.83229
H         64.75195        73.96018        -4.66337
O         39.61968        49.51885         3.32314
H         40.47554        49.47605         3.81541
O         49.90938        57.89651         3.71301
H         49.83901        57.23133         4.42939
O         51.88714        48.57127         0.00016
H         51.23824        48.27906        -0.67728
O         38.21443        70.08343         2.36486
H         38.80957        69.98931         3.13838
O         53.18117        51.66412         4.84820
H         53.68922        52.26136         5.45685
O         35.40607        62.97867        -0.97943
H         34.52612        62.92910        -1.41228
O         46.00655        41.64526         0.80615
H         45.93499        40.70416         0.54001
O         50.00795        54.27120         0.78920
H         50.12882        55.19920         0.48246
O         42.83568        62.76498        -0.71629
H         41.93917        62.69109        -1.12387
O         66.25156        69.39333        -0.16055
H         67.17897        69.39620         0.15353
O         29.38159        71.44148        -1.82651
H         29.02038        70.53395        -1.95399
O         42.09985        52.35930         4.02777
H         42.55664        53.03975         4.57474
O         45.29347        48.09527         3.29150
H         45.17360        47.11178         3.30830
O         38.11505        54.21530        -1.08089
H         37.43174        53.65323        -1.52451
O         64.51293        72.01833        -0.32019
H         63.75686        72.22012         0.27876
O         35.39094        69.06810        -1.51307
H         36.37463        68.95918        -1.67906
O         31.42673        60.73468        -1.42256
H         31.58152        61.69105        -1.63305
O         39.95449        62.93423        -0.78929
H         39.15367        62.42371        -1.04224
O         35.67041        50.88476         2.12557
H         35.77220        50.04373         2.62756
O         37.82817        75.12399        -1.48635
H         37.93122        75.24714        -0.52047
O         60.89644        62.20287        -1.11584
H         61.26459        62.74941        -1.85146
O         51.56792        39.87979        -1.00799
H         51.68708        40.33377        -1.86690
O         42.39416        49.80815         3.93874
H         43.20761        49.40141         4.30916
O         41.17665        42.84654         0.01338
H         40.76430        43.36498         0.74993
O         39.74052        47.70470        -1.51724
H         39.79110        47.26805        -2.39373
O         37.58149        65.35665         3.25141
H         38.11196        66.06343         3.69100
O         57.25123        52.25933         4.33853
H         55.97921        53.14800         5.26032
O         64.93952        68.67382        -3.49782
H         64.86411        67.69042        -3.47942
O         49.11117        47.02347        -0.96625
H         48.35640        47.59123        -1.23308
O         58.73736        65.32900         2.07521
H         59.55298        65.07938         2.55854
O         50.87769        50.31457         4.30205
H         51.59724        50.76146         4.82316
O         52.02972        47.89510         3.60747
H         51.49311        48.57071         4.09499
O         41.59726        39.53710        -5.93147
H         41.26640        38.96417        -5.21009
O         38.35162        46.58845         1.63835
H         37.99915        47.07912         2.41454
O         41.46751        69.44126         2.88554
H         41.65527        70.38642         3.08907
O         49.54037        36.71255        -4.15971
H         49.59835        37.33392        -4.91398
O         50.08427        57.62936         0.08128
H         50.18791        58.33721        -0.59413
O         55.90263        66.96357        -2.26552
H         56.37114        66.12169        -2.48025
H         23.05753        75.15782        -1.31045
H         25.49782        75.11789        -0.97455
H         27.89666        75.12442        -0.71988
H         30.37191        75.10405        -0.87936
H         32.84119        74.97695        -1.31936
H         35.31422        74.83542        -1.70841
H         37.70143        73.61523        -2.87237
H         40.26346        74.43406        -2.32670
H         42.70238        74.32436        -2.44416
H         45.14244        74.35940        -2.47307
H         47.52887        74.37281        -2.59914
H         50.13783        74.59148        -2.55848
H         52.57136        74.67368        -2.43430
H         55.09368        74.67040        -2.59517
H         57.61116        74.64149        -2.68970
H         60.10736        74.54238        -2.94621
H         62.56545        74.42271        -3.13554
H         65.37251        74.12577        -1.86521
H         67.37566        74.06413        -4.07166
H         21.95871        69.29761        -1.37988
H         20.82349        71.46975        -1.63308
H         20.90367        73.95459        -1.65854
H         24.29401        64.87815        -0.92073
H         23.11409        67.11522        -1.23863
H         26.81337        60.67736        -0.35720
H         25.55513        62.70053        -0.48555
H         29.38361        56.43499        -0.18335
H         28.14708        58.50934        -0.37322
H         31.78898        52.24267         0.10170
H         30.60301        54.32217         0.11927
H         34.44497        48.24144        -1.12277
H         33.05397        50.16433        -0.55834
H         37.35523        44.63150        -2.70429
H         35.85631        46.42350        -1.82260
H         40.34272        41.29068        -4.74357
H         38.87548        42.97501        -3.73531
H         43.15496        37.78977        -6.56103
H         43.11735        40.85988        -6.32495
H         46.29343        34.17439        -6.80781
H         44.33660        35.68722        -7.11173
H         48.09545        34.76069        -5.18100
H         48.20529        36.10293        -2.72588
H         50.13847        38.04136        -2.02688
H         50.20394        39.72286         0.51687
H         52.38915        41.84696         0.28049
H         53.55455        43.90205         0.99932
H         54.74878        45.97530         1.52710
H         55.93355        48.12169         2.00487
H         57.07929        50.09121         2.79667
H         58.25332        52.19502         2.44176
H         59.57144        54.31303         2.64647
H         60.83767        56.40361         2.27487
H         62.10855        58.45303         1.77951
H         63.43500        60.59398         1.30309
H         64.60756        62.63598         0.68394
H         65.88655        64.47591         0.13738
H         66.98839        67.00723        -0.10128
H         68.26782        68.47797        -2.30050
H         69.26721        70.17428        -3.85324
H         69.27681        72.53556        -4.59576
