         424
 CSIRO Nanostructure Databank - Neutral Graphene Oxide Data Set
C          1.21008         3.44035        -0.13506
C         -0.02495         4.16310        -0.11210
C          1.22908         6.23387        -0.61919
C         -0.05863         5.51783        -0.28060
C          1.21806         7.75078        -0.50454
C          0.02493         8.48861        -0.64464
C          1.20658        10.61995        -0.45817
C          0.02352         9.89040        -0.54298
C          1.22481        12.05739        -0.32307
C          0.04401        12.80443        -0.51427
C          1.23721        14.88147        -0.12953
C          0.06352        14.19143        -0.45129
C          1.22104        16.38733        -0.22230
C         -0.02755        17.03587         0.31974
C          1.17255        19.15421         0.60344
C         -0.04463        18.35501         0.59823
C          1.14676        20.53337         0.76962
C         -0.06415        21.30441         0.75154
C          1.17024        23.43950         0.70210
C         -0.05646        22.67143         0.76325
C          1.15977        24.84992         0.56174
C         -0.05362        25.62988         0.71571
C          1.09925        27.64053        -0.17973
C         -0.07850        26.95734         0.46776
C          1.11285        29.14596        -0.04952
C         -0.08843        29.86281        -0.06542
C          1.11115        31.97125        -0.16143
C         -0.09081        31.25744        -0.04533
C          1.05610        33.48286        -0.02239
C          0.10305        34.18803        -0.98154
C          1.08041        36.29011        -0.11727
C          0.11623        35.52690        -1.02042
C          1.20457        37.74422        -0.48618
C          3.66549         3.45252        -0.14593
C          2.43009         4.11585        -0.06201
C          3.67400         6.33282        -0.01487
C          2.37049         5.61214         0.19949
C          3.67421         7.70515        -0.17210
C          2.44057         8.42512        -0.38116
C          3.70495        10.61133        -0.10397
C          2.50902         9.90102        -0.68773
C          3.66291        11.97306         0.13627
C          2.44273        12.74065        -0.01122
C          3.64471        14.89582         0.44701
C          2.43816        14.16540         0.12286
C          3.67100        16.29857         0.46171
C          2.46175        17.05773         0.30948
C          3.67913        19.16051         0.66372
C          2.43603        18.43093         0.54335
C          3.67587        20.55601         0.75835
C          2.40866        21.28032         1.12410
C          3.62835        23.42603         0.61127
C          2.40463        22.73691         0.72581
C          3.62676        24.84661         0.45838
C          2.39405        25.56231         0.39889
C          3.61034        27.70030         0.22846
C          2.39947        26.97447         0.20472
C          3.60943        29.14486         0.04969
C          2.34430        29.85032        -0.08739
C          3.58633        31.98772        -0.58646
C          2.32401        31.26695        -0.20452
C          3.61015        33.45381        -0.23637
C          2.40991        34.16357        -0.12806
C          3.63922        36.26954        -0.16102
C          2.41585        35.57131        -0.12978
C          3.65645        37.71877        -0.33059
C          2.38648        38.39392        -0.53408
C          6.10381         3.46750        -0.29786
C          4.90564         4.13111        -0.07788
C          6.17442         6.30980        -0.06650
C          4.92491         5.58327         0.35157
C          6.15236         7.73286        -0.05353
C          4.92579         8.45554        -0.06568
C          6.17289        10.54967         0.29026
C          4.93310         9.86317         0.04042
C          6.18668        11.97107         0.54331
C          4.87216        12.65010         0.66937
C          6.16243        14.87837         1.13371
C          4.84453        14.14089         0.87765
C          6.15099        16.32369         0.70816
C          4.92364        17.01703         0.62676
C          6.14878        19.15113         0.65075
C          4.91849        18.43816         0.60985
C          6.14038        20.57939         0.66214
C          4.89682        21.28952         0.69966
C          6.11401        23.42965         0.55211
C          4.88460        22.71125         0.64600
C          6.10867        24.85170         0.45803
C          4.85609        25.56885         0.41970
C          6.10618        27.69228         0.56876
C          4.83488        26.97774         0.39018
C          6.09578        29.21401         0.40968
C          4.81838        29.87641         0.05514
C          6.06274        31.98990        -0.28625
C          4.84765        31.27217        -0.19168
C          6.10163        33.40510        -0.31765
C          4.85125        34.14390        -0.20711
C          6.13527        36.28665         0.14395
C          4.85286        35.55110        -0.11768
C          6.11805        37.73358        -0.29476
C          4.85261        38.39839        -0.42267
C          8.52141         3.46709        -0.65959
C          7.36476         4.15531        -0.39384
C          8.58454         6.33751        -0.48634
C          7.36932         5.61953        -0.30598
C          8.61388         7.74655        -0.28736
C          7.38506         8.44903        -0.03082
C          8.68203        10.48832         0.60955
C          7.38316         9.83218         0.23513
C          8.66466        11.99444         0.45941
C          7.38698        12.69186         0.58789
C          8.60524        14.84127         0.63300
C          7.41123        14.13521         0.68886
C          8.63579        16.28681         0.61699
C          7.37928        17.01498         0.65342
C          8.61869        19.15537         0.69399
C          7.38245        18.43833         0.63446
C          8.59234        20.56053         0.76078
C          7.36704        21.29009         0.68875
C          8.57894        23.44756         0.52140
C          7.35997        22.72582         0.61742
C          8.56534        24.82731         0.29682
C          7.33975        25.55501         0.33664
C          8.59035        27.70419         0.26387
C          7.37283        26.98280         0.35740
C          8.56891        29.14292         0.09441
C          7.36266        29.83711         0.02450
C          8.61846        31.95262        -0.68001
C          7.30903        31.21397        -0.47210
C          8.59813        33.43160        -0.57999
C          7.35001        34.12076        -0.40808
C          8.57665        36.25619        -0.37291
C          7.36964        35.53862        -0.29893
C          8.57925        37.70772        -0.37159
C          7.31287        38.40091        -0.42688
C         11.04144         3.48045        -0.52866
C          9.79836         4.14837        -1.05013
C         11.01265         6.30693        -0.81781
C          9.82439         5.63376        -0.73664
C         11.02021         7.80162        -1.02151
C          9.82236         8.47793        -0.41749
C         11.09432        10.53450        -0.04889
C          9.88424         9.84039        -0.04221
C         11.15626        11.90706         0.57320
C          9.85282        12.66539         0.46289
C         11.14011        14.85087         0.37036
C          9.91015        14.12105         0.84526
C         11.11467        16.26089         0.30050
C          9.84734        16.97500         0.47315
C         11.06467        19.11139         0.41499
C          9.86768        18.42302         0.54925
C         11.13794        20.52362         0.77635
C          9.84638        21.28535         1.00168
C         11.12332        23.39077         0.39732
C          9.86508        22.80843         0.99073
C         11.13999        24.78602        -0.01036
C          9.80553        25.55833        -0.03695
C         11.06337        27.72263         0.00064
C          9.82804        27.01574         0.07481
C         11.06493        29.11556         0.03662
C          9.82868        29.84701        -0.07351
C         11.12214        31.90968        -0.58772
C          9.85080        31.21220        -0.36647
C         11.09340        33.43223        -0.74346
C          9.80373        34.13697        -0.57721
C         11.04885        36.27434        -0.43980
C          9.81955        35.55966        -0.46806
C         11.04184        37.70583        -0.39336
C          9.78470        38.39244        -0.40084
C         13.46112         3.50226        -0.19557
C         12.23793         4.13596        -0.59029
C         13.54339         6.29844        -0.79405
C         12.27874         5.54770        -1.14557
C         13.55191         7.75236        -0.78667
C         12.31884         8.48472        -0.71363
C         13.53755        10.60218        -0.39705
C         12.32044         9.86947        -0.40463
C         13.55680        12.01037        -0.17149
C         12.36596        12.70750         0.14290
C         13.57702        14.85597        -0.06359
C         12.35178        14.13218         0.15821
C         13.56172        16.29156        -0.07781
C         12.31939        16.96973         0.05929
C         13.57647        19.15534         0.15142
C         12.27881        18.45632        -0.18011
C         13.58667        20.56845         0.34259
C         12.37892        21.27968         0.53193
C         13.59339        23.42279         0.37175
C         12.35037        22.69998         0.46992
C         13.58814        24.87017         0.28068
C         12.39488        25.53872         0.07690
C         13.61773        27.73604         0.00960
C         12.35450        26.98727        -0.34771
C         13.61196        29.12238         0.07214
C         12.33274        29.87089         0.34759
C         13.55546        31.99685        -0.11830
C         12.37976        31.28269        -0.17519
C         13.55720        33.44907        -0.27327
C         12.33976        34.15555        -0.46479
C         13.51734        36.29577        -0.29405
C         12.30043        35.57007        -0.39425
C         13.50196        37.72849        -0.29604
C         12.26200        38.40722        -0.34562
C         15.88443         3.51820         0.17118
C         14.67425         4.17515        -0.22030
C         15.99141         6.27525        -0.49796
C         14.71576         5.59927        -0.52771
C         16.05414         7.70148        -0.99300
C         14.76489         8.43878        -0.73730
C         16.03616        10.60539        -0.51942
C         14.76409         9.92739        -0.94278
C         16.03116        12.00277        -0.35473
C         14.80188        12.73195        -0.28145
C         16.04948        14.88212        -0.31374
C         14.80508        14.15269        -0.21416
C         16.03978        16.32208        -0.31609
C         14.79039        17.02339        -0.20721
C         16.01638        19.19779        -0.07610
C         14.78643        18.46632        -0.05359
C         16.05548        20.57462         0.19439
C         14.82502        21.29151         0.36537
C         16.04834        23.45111         0.69008
C         14.79925        22.71120         0.41615
C         16.06690        24.91934         0.48574
C         14.85916        25.59530         0.28706
C         16.07733        27.73851         0.18404
C         14.85072        27.02242         0.13137
C         16.07311        29.16867         0.12278
C         14.83440        29.86381         0.10167
C         16.03146        32.00500         0.14701
C         14.82443        31.29795         0.09142
C         16.00286        33.48999         0.40369
C         14.75231        34.17120        -0.09147
C         15.98391        36.30988        -0.15678
C         14.75023        35.58757        -0.17531
C         15.95821        37.73665        -0.18341
C         14.74136        38.42229        -0.22688
C         18.27900         3.53751         0.73735
C         17.08890         4.19306         0.21937
C         18.45586         6.26557        -0.24283
C         17.14178         5.58665        -0.17397
C         18.49663         7.73841        -0.25783
C         17.27508         8.46104        -0.50981
C         18.48433        10.58187         0.03376
C         17.23616         9.85050        -0.40851
C         18.47946        12.03689        -0.36716
C         17.29401        12.73227        -0.35409
C         18.51123        14.90062        -0.45108
C         17.27353        14.18794        -0.40170
C         18.50152        16.33599        -0.47378
C         17.26425        17.03191        -0.42231
C         18.50846        19.27636        -0.58450
C         17.18912        18.51636        -0.73736
C         18.51471        20.65300        -0.02685
C         17.32544        21.27787         0.29354
C         18.65360        23.45090         0.87720
C         17.33328        22.68416         0.78219
C         18.56696        24.91286         0.46931
C         17.32094        25.61246         0.42061
C         18.55025        27.75515         0.20757
C         17.31719        27.03109         0.26392
C         18.54568        29.18612         0.14158
C         17.29959        29.89971         0.12184
C         18.52177        32.06111         0.09371
C         17.27909        31.32146         0.12892
C         18.52043        33.48866         0.01700
C         17.26776        34.21962         0.01675
C         18.48553        36.35089        -0.52570
C         17.23107        35.59065        -0.16491
C         18.41828        37.81472        -0.13858
C         17.21456        38.45824        -0.08628
C         19.47417         4.16170         0.84127
C         20.80151         6.33917         0.75968
C         19.68129         5.51957         0.30031
C         20.83980         7.68049         0.49197
C         19.70732         8.39349        -0.01618
C         20.94046        10.66850         0.12702
C         19.76949         9.86244        -0.39269
C         20.92933        12.00300         0.00324
C         19.78845        12.70161        -0.71342
C         20.93953        14.90673        -0.65400
C         19.75301        14.20161        -0.53387
C         20.94095        16.31334        -0.66157
C         19.75717        17.02780        -0.57011
C         21.00505        19.20568        -0.06579
C         19.80349        18.51305        -0.57149
C         21.00660        20.54754         0.10622
C         19.79140        21.33827         0.09277
C         21.03181        23.48708         0.15001
C         19.83475        22.71910         0.28370
C         21.00973        24.85526         0.21673
C         19.77823        25.60563         0.31693
C         20.99077        27.79026         0.16219
C         19.78403        27.04505         0.21636
C         20.98298        29.16870         0.12476
C         19.76915        29.90387         0.11832
C         20.96442        32.09226         0.04089
C         19.75753        31.35306         0.08484
C         20.95923        33.47494         0.00049
C         19.74817        34.20025        -0.02482
C         20.87188        36.40871         0.17818
C         19.75059        35.66081        -0.06641
C         20.83811        37.84886         0.18230
C         19.66225        38.52680         0.05181
O          6.10796        28.59556         1.73643
O         11.17291        32.55656        -1.91399
O         19.30690        19.14797        -1.81732
O         19.41653         5.63176        -1.14301
O         16.55680        22.94849         2.00565
O         10.40351        25.05247        -1.30204
O         10.59075        20.76436         2.15305
O          0.56005        33.65100         1.30727
O          4.57256        13.22486         2.00852
O          7.87325        31.39698        -1.82367
O          1.53417         5.94543        -2.01665
H          0.74381         6.16852        -2.55051
O          2.72845         9.96287        -2.16266
H          1.98227         9.48158        -2.58082
O         18.48352        10.56087         1.49736
H         17.67745        11.02847         1.80215
O         11.32445        11.67353         2.02937
H         11.12361        12.54443         2.46216
O         19.00832        23.49311         2.30146
H         18.15131        23.52247         2.79138
O          0.95277        27.39537        -1.62951
H          0.93490        26.42292        -1.75791
O         19.99372        12.52838        -2.15053
H         19.92343        11.55628        -2.33576
O         12.35010        26.94390        -1.81683
H         11.61856        26.32745        -2.07111
O          9.85727         4.05386        -2.51799
H         10.74415         4.41291        -2.78623
O         14.70507        10.10224        -2.43186
H         13.82258         9.77753        -2.71766
O          6.32859        14.95347         2.58972
H          5.80713        14.20082         2.96270
O          9.94532        23.23669         2.39603
H         10.41521        22.50989         2.87378
O         16.18646         7.64419        -2.45686
H         15.96250         8.54588        -2.79210
O         15.92935        33.59941         1.88305
H         15.92368        34.55622         2.10138
O         10.07277        14.09872         2.33635
H          9.17269        14.02161         2.72478
O          2.07347         5.77306         1.62233
H          1.21849         5.32042         1.79340
O         19.80073         9.86110        -1.85450
H         20.47146         9.20846        -2.14610
O         12.29373        30.00982         1.82205
H         13.11998        30.46429         2.09548
O          8.85133        10.26290         2.05040
H          9.74491        10.62515         2.28505
O         16.84085        18.56602        -2.16203
H         17.70061        18.59280        -2.64781
O         12.27947         5.42790        -2.61889
H         12.08593         6.33332        -2.96432
O          3.60045        31.94694        -2.06780
H          4.45101        32.33680        -2.36517
O          1.22067        16.66498        -1.67403
H          1.20748        17.64023        -1.78105
O          4.93815         5.56842         1.82557
H          3.99727         5.53804         2.12186
O         18.54659        36.33532        -1.99752
H         19.34681        36.83905        -2.25771
O          2.40514        21.30495         2.60833
H          3.20908        21.79086         2.89210
O         10.87577         7.93704        -2.51985
H          9.97026         7.62600        -2.74263
O         12.12744        18.62453        -1.64707
H         12.94085        18.26816        -2.06599
O          6.24671        36.33418         1.61693
H          7.00278        36.92162         1.83137
O          0.55043        36.26311         1.23124
H          0.46620        35.29028         1.48401
H          1.19209         2.34317        -0.20479
H         -0.96270         3.60148         0.01511
H         -1.02266         6.04621        -0.28652
H         -0.93862         7.97020        -0.74108
H         -0.94932        10.39887        -0.49282
H         -0.89434        12.30063        -0.77987
H         -0.85440        14.74746        -0.68409
H         -0.95881        16.45504         0.38338
H         -0.98601        18.82692         0.91420
H         -1.03135        20.78586         0.68469
H         -1.01756        23.20223         0.73146
H         -0.95543        25.13790         1.10676
H         -1.01046        27.51641         0.62918
H         -1.05021        29.33215        -0.06825
H         -1.04106        31.80375         0.02771
H         -0.61620        33.60273        -1.57607
H         -0.58700        36.08958        -1.65478
H          0.26892        38.30310        -0.64294
H          3.66893         2.36752        -0.33966
H          2.41545        39.47238        -0.75617
H          6.08796         2.38692        -0.51160
H          4.85040        39.47874        -0.63523
H          8.48670         2.37008        -0.74964
H          7.31906        39.48437        -0.62102
H         10.99947         2.43184        -0.19548
H          9.78372        39.49258        -0.41310
H         13.42525         2.45524         0.14146
H         12.25085        39.50720        -0.32644
H         15.84189         2.45397         0.44767
H         14.74009        39.52251        -0.22336
H         18.16335         2.51064         1.11591
H         17.17923        39.54747         0.07251
H         20.32678         3.65849         1.32176
H         21.61742         5.86027         1.32090
H         21.73465         8.24754         0.78512
H         21.78909        10.17170         0.62046
H         21.77590        12.59711         0.38129
H         21.89136        14.37200        -0.77378
H         21.89842        16.83992        -0.77107
H         21.92539        18.63195         0.10978
H         21.93915        21.04144         0.41285
H         21.98113        22.98183        -0.07832
H         21.95675        25.39492         0.08623
H         21.96030        27.27594         0.17195
H         21.94715        29.69287         0.10279
H         21.93200        31.57449         0.03343
H         21.91918        34.00719        -0.04058
H         21.82575        35.92414         0.43083
H         21.77559        38.39398         0.35955
H         19.63210        39.62190         0.15236
