         324
 CSIRO Nanostructure Databank - Neutral Graphene Oxide Data Set
C         30.37479        57.14639        -0.08740
C         30.35044        58.55080        -0.22004
C         29.12973        59.26195        -0.38515
C         30.32468        61.36964        -0.50268
C         29.12756        60.64673        -0.51880
C         32.86993        52.90992         0.52964
C         32.81127        54.34409         0.46271
C         31.60821        55.03443         0.22715
C         32.82549        57.18459         0.13920
C         31.59121        56.44636         0.09373
C         32.82014        58.60680        -0.01687
C         31.58244        59.28636        -0.19345
C         32.80149        61.41277        -0.36100
C         31.56258        60.70445        -0.34453
C         35.39192        48.63163         0.51128
C         34.95984        49.84466         1.03827
C         33.98471        50.75502         0.56276
C         35.26955        52.90642         1.20094
C         34.01641        52.16055         0.82253
C         35.25289        54.39201         0.92770
C         34.01854        55.09683         0.54915
C         35.29917        57.24523         0.40458
C         34.04859        56.49380         0.35760
C         35.29447        58.66462         0.19308
C         34.04595        59.34397        -0.01484
C         35.28425        61.56501        -0.34634
C         34.01253        60.75666        -0.22093
C         37.84597        44.35111         0.68526
C         37.81613        45.75387         1.08960
C         36.66310        46.59324         0.73519
C         37.83531        48.65361         1.56924
C         36.60589        47.95051         0.92854
C         37.90441        50.14433         1.27958
C         36.77466        50.91595         1.58380
C         37.80032        52.91422         0.80842
C         36.62245        52.24587         1.16925
C         37.78948        54.36352         0.53059
C         36.51009        55.09821         0.55416
C         37.77263        57.25560         0.51104
C         36.51826        56.57574         0.57029
C         37.76614        58.68259         0.34556
C         36.52594        59.37634         0.17137
C         37.75013        61.48108        -0.07957
C         36.55749        60.79893        -0.06451
C         40.26248        40.04807         0.40644
C         40.21885        41.47067         0.31241
C         39.05334        42.20838         0.48008
C         40.29081        44.39111         0.58797
C         39.03621        43.64819         0.58871
C         40.36526        45.72470         0.91512
C         39.16952        46.47772         1.32931
C         40.26465        48.62551         0.79124
C         39.14262        47.95236         1.18157
C         40.21082        50.03943         0.35007
C         39.02195        50.80994         0.75277
C         40.23431        52.96602         0.28953
C         39.02098        52.22178         0.61348
C         40.27333        54.34316         0.44248
C         39.04820        55.08933         0.91580
C         40.23124        57.23215         0.42760
C         39.00712        56.55141         0.55102
C         40.22537        58.66356         0.39023
C         38.99746        59.38196         0.33556
C         40.20461        61.52351         0.18022
C         39.01462        60.82515         0.15177
C         42.74982        35.78188         0.63511
C         42.68590        37.14359         0.32060
C         41.50191        37.91008         0.44926
C         42.74123        40.06140         0.21583
C         41.45709        39.31944         0.31994
C         42.74658        41.50691        -0.08109
C         41.45257        42.19766        -0.07214
C         42.79636        44.37236         0.08517
C         41.48359        43.70557         0.05047
C         42.85665        45.75533         0.32912
C         41.64912        46.46100         0.82505
C         42.78207        48.70780         0.23440
C         41.59478        47.97255         0.75315
C         42.75309        50.03851        -0.05730
C         41.44598        50.75084        -0.11487
C         42.75892        52.95657         0.08907
C         41.45621        52.27534        -0.30046
C         42.72998        54.34234         0.31138
C         41.50743        55.07356         0.37333
C         42.68295        57.25237         0.26239
C         41.48834        56.51352         0.40794
C         42.65089        58.66554         0.17172
C         41.45946        59.36843         0.32855
C         42.75192        61.53523         0.34566
C         41.45830        60.84093         0.65389
C         45.25361        33.13066         1.51334
C         44.01829        33.74514         1.16607
C         45.21669        35.62687         0.11013
C         43.96346        35.03008         0.62249
C         45.22979        37.08543        -0.23328
C         43.92151        37.81799        -0.16105
C         45.21294        39.97388        -0.55462
C         44.00052        39.29485         0.00879
C         45.18089        41.47235        -0.60305
C         43.92147        42.19676        -0.29085
C         45.20736        44.34019        -0.34673
C         43.97170        43.64496        -0.21622
C         45.22097        45.75138        -0.27226
C         44.05397        46.45775         0.09542
C         45.29848        48.68303        -0.11633
C         44.06478        47.94272         0.24981
C         45.26653        50.12747        -0.39702
C         43.94886        50.82963        -0.58685
C         45.23928        52.91289         0.03294
C         44.00393        52.26218        -0.06653
C         45.29979        54.33620         0.43921
C         43.99058        55.06962         0.55882
C         45.24776        57.28505         0.10569
C         43.98609        56.57028         0.45058
C         45.16392        58.64182        -0.08769
C         43.87324        59.38943        -0.31667
C         45.17544        61.52643         0.08430
C         43.92169        60.85703         0.07342
C         46.46129        33.75263         1.32473
C         47.73805        35.83034         0.56996
C         46.54799        34.97901         0.53062
C         47.72218        37.18709         0.19430
C         46.49501        37.85676        -0.13584
C         47.69992        39.98257        -0.34417
C         46.50050        39.24780        -0.36224
C         47.74866        41.44586        -0.73753
C         46.44907        42.21660        -0.56064
C         47.73315        44.30538        -0.61446
C         46.45229        43.58814        -0.51206
C         47.73416        45.74776        -0.72605
C         46.42060        46.48542        -0.83393
C         47.70223        48.63505        -0.47995
C         46.52850        47.93936        -0.43622
C         47.72017        50.08726        -0.51688
C         46.45163        50.80751        -0.49533
C         47.66760        52.94390        -0.54159
C         46.47882        52.26626        -0.37592
C         47.89520        54.34151        -0.00524
C         46.59422        55.11653         0.27439
C         47.63557        57.21455        -0.59397
C         46.51836        56.57399        -0.04923
C         47.57883        58.67290        -0.90176
C         46.34031        59.40639        -0.52442
C         47.62656        61.36957         0.25078
C         46.40356        60.83625        -0.10004
C         48.92989        37.95110         0.19530
C         50.17560        40.08437        -0.07534
C         48.93123        39.31528        -0.09357
C         50.18411        41.43774        -0.04459
C         48.86016        42.17284         0.03089
C         50.19839        44.22865        -0.75961
C         48.91608        43.60521        -0.45184
C         50.18494        45.76463        -0.95794
C         48.91540        46.45520        -0.75855
C         50.19616        48.64587        -0.86710
C         49.00200        47.90176        -0.32982
C         50.13552        50.02226        -0.99833
C         48.90486        50.75469        -0.78212
C         50.18467        52.94033        -1.00185
C         48.85089        52.22372        -1.15716
C         50.18135        54.39831        -0.98845
C         48.96354        55.12173        -0.73968
C         50.06187        57.26353        -1.32816
C         48.86677        56.50456        -0.87799
C         50.11018        58.77771        -1.18614
C         48.82885        59.57229        -0.98027
C         50.13751        61.32574         0.20131
C         48.86960        60.51304         0.23116
C         51.48093        42.19347         0.17664
C         52.62365        44.35648        -0.36975
C         51.47476        43.62170        -0.34014
C         52.65197        45.78597        -0.63885
C         51.44679        46.50187        -0.79603
C         52.67856        48.59817        -1.02348
C         51.44386        47.91483        -0.92501
C         52.68348        50.03964        -1.35142
C         51.35185        50.77707        -1.37404
C         52.67480        52.95423        -1.47049
C         51.35358        52.25107        -1.19148
C         52.65284        54.41680        -1.10168
C         51.39719        55.08888        -1.14696
C         52.66753        57.31690        -1.05073
C         51.37614        56.54504        -1.33268
C         52.58077        58.74687        -0.68450
C         51.37442        59.43345        -0.78660
C         52.56980        61.60578        -0.28150
C         51.29411        60.80035        -0.26921
C         53.86758        46.50777        -0.63132
C         55.20960        48.60402        -0.97118
C         53.88573        47.88742        -0.85025
C         55.11357        50.09440        -0.72952
C         53.91557        50.80890        -1.03411
C         55.04147        52.91992        -0.54489
C         53.88498        52.20273        -0.96125
C         55.04678        54.34922        -0.46945
C         53.84047        55.10567        -0.79948
C         54.93821        57.20800        -0.08912
C         53.83777        56.53157        -0.62198
C         54.87850        58.59510         0.22777
C         53.73944        59.36014        -0.06610
C         54.83683        61.41120         0.74916
C         53.74111        60.78297         0.20264
C         56.23848        50.78263        -0.31527
C         57.38296        52.89480         0.23164
C         56.22797        52.19957        -0.19379
C         57.39277        54.29297         0.32317
C         56.20720        55.01139        -0.04463
C         57.43127        57.16939         0.58871
C         56.22360        56.47979         0.00741
C         57.28268        58.53479         1.11081
C         55.92273        59.17750         1.15542
C         57.10672        61.29620         1.70856
C         55.99843        60.68286         1.16607
C         58.54313        54.98007         0.85182
C         59.64064        57.02940         1.71323
C         58.56535        56.34793         1.06792
C         59.58001        58.39585         1.98610
C         58.35746        59.14447         1.72229
C         59.38266        61.15812         2.67665
C         58.28408        60.55303         2.08159
C         60.66488        59.08414         2.62160
C         60.56140        60.41547         2.95482
O         57.24107        57.09445        -0.88009
O         41.91101        47.27981         2.01555
O         37.13358        54.65893        -0.73908
O         46.12857        54.69126         1.60191
O         43.97197        55.90065         1.76519
O         50.22019        44.84451        -2.08991
O         44.43204        37.37352        -1.44917
O         52.00607        50.34393        -2.61738
O         52.24908        56.98345        -2.41472
O         40.52277        50.14459        -1.10457
O         43.66427        39.73413         1.35725
O         45.04767        40.62979        -1.84452
O         45.96038        34.82091        -0.82969
O         49.98518        58.13518        -2.50260
O         35.17212        53.86420         2.30409
O         46.62371        59.07443        -1.94973
O         35.67452        50.29901         2.16900
O         41.23787        43.05710        -1.24763
O         38.39353        45.95916         2.44436
O         44.94713        48.40443         1.34130
O         48.59802        52.24103        -2.60646
H         49.30363        51.71263        -3.03842
O         41.37687        52.47840        -1.75718
H         40.67785        51.85896        -2.07688
O         55.40372        58.80952         2.50277
H         55.96271        59.27508         3.16236
O         43.72162        59.37324        -1.77948
H         44.61308        59.49014        -2.18055
O         48.70858        60.43749        -2.11912
H         48.74043        59.86759        -2.91844
O         49.23798        47.84301         1.12995
H         48.37193        47.68894         1.56606
O         52.81780        52.94907        -2.93220
H         52.10962        53.51547        -3.30564
O         46.12446        46.54064        -2.27731
H         46.95266        46.77123        -2.74999
O         39.06426        55.04129         2.38041
H         39.91612        55.42008         2.68502
O         35.21292        62.73656         0.48342
H         35.16355        62.44684         1.41727
O         56.18867        48.00741        -0.11455
H         55.88093        48.09316         0.81067
O         52.59413        41.47339        -0.35386
H         52.50955        41.45754        -1.32926
O         43.73900        50.93782        -2.02800
H         42.93810        51.50725        -2.16795
O         48.44539        42.17707         1.42767
H         49.13102        42.63662         1.95490
O         52.83965        62.04548        -1.62729
H         52.84032        61.25713        -2.20938
O         48.07587        41.47953        -2.14882
H         47.30089        41.12428        -2.63724
O         41.36884        60.89195         2.14062
H         40.51571        60.47727         2.39297
O         48.87011        59.66125         1.41727
H         48.89227        60.23823         2.20911
O         48.53790        54.09167         1.29092
H         47.80312        54.02721         1.94989
O         37.72220        48.52695         3.00240
H         37.80176        47.56487         3.21491
H         29.42947        56.58422        -0.11685
H         28.18292        58.70339        -0.40482
H         30.31022        62.46285        -0.61769
H         28.17452        61.17969        -0.64359
H         31.94530        52.36076         0.29362
H         30.66175        54.47786         0.16282
H         32.79381        62.50372        -0.50123
H         34.77974        48.13632        -0.25885
H         33.16965        50.37568        -0.07350
H         35.34033        61.94515        -1.40461
H         36.89155        43.84735         0.47094
H         35.80316        46.08148         0.27445
H         37.74615        62.56773        -0.25096
H         39.31898        39.50533         0.57097
H         38.10510        41.67599         0.64960
H         40.20484        62.61499         0.03996
H         41.83922        35.27878         0.99532
H         40.56381        37.37978         0.67578
H         42.79866        62.61612         0.55537
H         45.22027        32.17584         2.05751
H         43.08289        33.25794         1.47712
H         45.20424        62.58599         0.38321
H         47.37968        33.34003         1.76649
H         48.67689        35.39655         0.94659
H         47.68728        62.40275         0.62768
H         49.87717        37.44235         0.42737
H         51.12803        39.53290        -0.03732
H         50.12362        62.35226         0.60119
H         51.64298        42.24118         1.29469
H         53.57236        43.87002        -0.09544
H         52.45637        62.52605         0.34353
H         54.82036        45.97556        -0.49616
H         55.58493        48.45840        -2.02299
H         54.83495        62.50673         0.85857
H         57.16065        50.22629        -0.09242
H         58.28451        52.32467         0.50014
H         57.11968        62.39073         1.82766
H         59.40914        54.37292         1.15623
H         60.53255        56.45675         2.00929
H         59.34643        62.22763         2.92903
H         61.58814        58.52837         2.84038
H         61.40775        60.92515         3.43651
