         404
 CSIRO Nanostructure Databank - Neutral Graphene Oxide Data Set
C          1.21032         3.44291        -0.41082
C          0.05499         4.12080        -0.77743
C          1.25254         6.25308        -0.83672
C          0.06640         5.50619        -0.98294
C          1.29019         7.70104        -1.00306
C          0.10377         8.44625        -1.23223
C          1.33445        10.55644        -1.18787
C          0.12401         9.82203        -1.31327
C          1.36113        11.99719        -1.21562
C          0.15733        12.74047        -1.35329
C          1.34170        14.85797        -1.06956
C          0.14933        14.11266        -1.28270
C          1.26264        16.28721        -0.92010
C          0.07378        17.03589        -0.94200
C          1.17302        19.20583        -0.51144
C          0.01735        18.41765        -0.68629
C          1.19995        20.62133        -0.34622
C          0.04532        21.42016        -0.66595
C          1.08688        23.48823         0.18321
C          0.02423        22.77562        -0.53914
C          1.11566        24.97886         0.25778
C          0.00876        25.79294        -0.05174
C          1.04763        27.74961         0.95897
C          0.02199        27.17432         0.18255
C          1.19265        29.21094         1.18489
C          0.02224        29.96891         1.22227
C          1.22819        32.07966         1.18209
C          0.04071        31.37371         1.30185
C          1.28057        33.58834         1.36287
C         -0.00874        34.32375         1.09458
C          1.19348        36.34629         0.41564
C         -0.01965        35.63055         0.73438
C          1.18887        37.73101         0.14061
C          3.61979         3.47162         0.13196
C          2.43124         4.14693        -0.25171
C          3.67850         6.27520        -0.35836
C          2.44648         5.56203        -0.48340
C          3.72843         7.67700        -0.62121
C          2.51722         8.40367        -0.90715
C          3.78560        10.56046        -0.97019
C          2.54851         9.83863        -1.01298
C          3.82856        11.97001        -0.98681
C          2.59042        12.70391        -1.07063
C          3.83748        14.81775        -0.82988
C          2.58491        14.13645        -0.99530
C          3.80316        16.27848        -0.58140
C          2.50034        17.02002        -0.59065
C          3.73854        19.27790        -0.43429
C          2.46248        18.51772        -0.69684
C          3.62869        20.62211         0.15257
C          2.41573        21.28750         0.07481
C          3.63925        23.43869         0.73362
C          2.35213        22.70706         0.52253
C          3.63131        24.96299         0.68871
C          2.23052        25.55757         0.91006
C          3.91060        27.90053         1.64253
C          2.02903        26.85048         1.41060
C          3.74379        29.26615         1.26173
C          2.46063        29.91320         1.19801
C          3.65720        32.05456         0.72653
C          2.45561        31.35079         1.04824
C          3.62876        33.48129         0.44325
C          2.45084        34.22679         0.65138
C          3.60053        36.27653        -0.11801
C          2.41824        35.60873         0.32101
C          3.58874        37.69659        -0.33528
C          2.35497        38.39991        -0.19714
C          6.03775         3.49837         0.66249
C          4.83284         4.16179         0.30784
C          6.05519         6.30195         0.21782
C          4.85289         5.58294         0.04287
C          6.12101         7.67110        -0.14934
C          4.97463         8.35074        -0.58883
C          6.35259        10.53047        -0.89606
C          5.03450         9.77580        -0.99108
C          6.29504        11.98665        -0.70816
C          5.09644        12.68818        -0.85705
C          6.31073        14.89820        -0.59313
C          5.06574        14.14294        -0.77644
C          6.32845        16.26124        -0.42474
C          5.08668        17.04065        -0.64198
C          6.15330        19.08183         0.44385
C          5.03743        18.51577        -0.37388
C          6.11242        20.52636         0.86755
C          4.81229        21.27293         0.77469
C          6.11656        23.45982         0.87623
C          4.82382        22.75971         0.81923
C          6.11124        24.84035         0.99253
C          4.85270        25.56735         1.47232
C          6.17447        27.77722         0.92645
C          4.96648        27.08831         1.27760
C          6.16228        29.21402         0.87292
C          4.95663        29.94670         0.94594
C          6.04475        31.99702         0.12281
C          4.90287        31.35807         0.62193
C          5.95424        33.34081        -0.45221
C          4.77076        34.13464        -0.10671
C          6.02018        36.22049        -0.67496
C          4.79482        35.53194        -0.32939
C          6.01716        37.65794        -0.77683
C          4.78961        38.36095        -0.64979
C          8.48049         3.49347         0.95116
C          7.25170         4.19537         0.89184
C          8.16185         6.47260         1.39491
C          7.18936         5.65089         0.83512
C          8.36672         7.82073         0.95983
C          7.43276         8.34611        -0.05231
C          8.72907        10.55939         0.12659
C          7.58318         9.80369        -0.42728
C          8.79720        11.95280        -0.08102
C          7.61194        12.67282        -0.63924
C          8.87269        14.88277        -0.26261
C          7.61018        14.17328        -0.66806
C          8.80145        16.30818         0.11718
C          7.60815        17.08211        -0.39432
C          8.67637        19.11476         0.71831
C          7.44246        18.34625         0.43349
C          8.60324        20.53829         0.89214
C          7.40267        21.26568         0.88972
C          8.59782        23.40238         0.75419
C          7.38184        22.71121         0.83088
C          8.64298        24.82958         0.45702
C          7.30898        25.60760         0.63809
C          8.66659        27.75432         0.81109
C          7.37279        27.05863         0.81060
C          8.68806        29.18388         0.47031
C          7.43221        29.92910         0.70716
C          8.54449        31.99890        -0.35838
C          7.35913        31.39337         0.26926
C          8.53691        33.33693        -0.72860
C          7.24408        34.05578        -0.84265
C          8.46745        36.21925        -0.98747
C          7.23956        35.52837        -0.82557
C          8.46767        37.65383        -1.07621
C          7.23437        38.34103        -0.99347
C         10.90813         3.45538         0.33439
C          9.79148         4.08695         0.94613
C         11.20929         6.10776         1.30908
C         10.02254         5.36274         1.53208
C         11.30821         7.49552         1.61746
C          9.46349         8.58901         1.32687
C         11.08855        10.50233         0.95819
C          9.79301         9.87548         0.77886
C         11.13856        11.91072         0.74223
C          9.97342        12.61544         0.30820
C         11.14483        14.76123         0.94530
C         10.05445        14.08339         0.18518
C         11.11789        16.25052         1.04259
C          9.88764        16.97037         0.61617
C         11.14662        19.09793         0.86161
C          9.87650        18.41341         0.78896
C         11.13848        20.47773         0.83506
C          9.89260        21.22102         1.07137
C         11.12843        23.44214         0.58101
C          9.89188        22.74926         0.97401
C         11.14492        24.83672         0.45294
C          9.92393        25.53905         0.52627
C         11.17170        27.70169         0.18429
C          9.96440        26.98971         0.64221
C         11.12060        29.09711        -0.01767
C          9.84874        29.81107         0.08460
C         11.04345        31.92431        -0.76285
C          9.77007        31.19400        -0.45475
C         11.00600        33.39644        -0.89609
C          9.75269        34.06669        -0.96379
C         10.90760        36.22517        -1.27787
C          9.71102        35.50541        -1.08619
C         10.92305        37.65548        -1.32315
C          9.70089        38.34488        -1.23055
C         13.25947         3.52678        -0.48453
C         12.15528         4.11623         0.18002
C         13.49355         6.20670         0.46612
C         12.28781         5.47857         0.62660
C         13.52391         7.59638         0.76003
C         12.36406         8.30288         1.16708
C         13.57420        10.46424         1.07915
C         12.33729         9.77616         1.15104
C         13.60873        11.90653         1.03073
C         12.39033        12.62733         0.90571
C         13.63448        14.76765         1.06947
C         12.43208        14.04391         0.95564
C         13.62225        16.22411         1.05627
C         12.41510        16.95724         1.01675
C         13.63765        19.07499         0.80209
C         12.41159        18.36999         0.86487
C         13.65768        20.51034         0.62222
C         12.36678        21.19118         0.46831
C         13.63953        23.41011         0.32536
C         12.35495        22.69406         0.31080
C         13.61800        24.83803         0.19091
C         12.39864        25.54659         0.22896
C         13.59309        27.65794        -0.29141
C         12.38027        26.96787         0.02937
C         13.52966        29.07671        -0.48911
C         12.33118        29.78476        -0.34563
C         13.52348        32.02011        -0.80585
C         12.32315        31.29955        -0.26122
C         13.48802        33.39140        -1.03792
C         12.21687        34.07723        -1.07394
C         13.47746        36.25702        -1.54063
C         12.16288        35.48731        -1.46423
C         13.41311        37.71913        -1.34550
C         12.18190        38.36044        -1.34256
C         15.57046         3.66566        -1.37680
C         14.48082         4.22556        -0.66364
C         15.86011         6.22685        -0.24543
C         14.63307         5.55083        -0.12449
C         16.04966         7.50266         0.46703
C         14.81356         8.27798         0.88162
C         16.06148        10.41343         0.97762
C         14.84955         9.75132         1.00597
C         16.09729        11.87556         1.23356
C         14.83527        12.63052         1.10901
C         16.12876        14.77633         1.05263
C         14.87009        14.04447         1.10113
C         16.10596        16.21732         1.01382
C         14.86623        16.93236         1.01306
C         16.10243        19.07228         0.86814
C         14.86879        18.35436         0.88679
C         16.15822        20.53443         0.45446
C         14.82845        21.24656         0.51026
C         16.10646        23.40050         0.26661
C         14.83410        22.68453         0.38103
C         16.07037        24.80461        -0.07962
C         14.86141        25.53035        -0.05707
C         16.08105        27.64518        -0.48664
C         14.83737        26.94547        -0.31890
C         16.07030        29.06983        -0.86400
C         14.75015        29.78421        -0.95245
C         16.02238        32.03943        -0.88482
C         14.76954        31.28830        -1.01698
C         15.98583        33.43672        -0.92592
C         14.73610        34.12900        -1.15206
C         15.93120        36.27394        -1.10464
C         14.73041        35.53256        -1.23975
C         15.86973        37.72364        -1.06719
C         14.65497        38.39937        -1.15019
C         17.82955         3.84931        -2.38540
C         16.75820         4.38663        -1.58948
C         18.12273         6.44670        -1.24689
C         16.92051         5.68591        -1.00960
C         18.30730         7.74567        -0.68995
C         17.32649         8.25491         0.28730
C         18.49315        10.51864         0.16113
C         17.34712         9.72444         0.66825
C         18.63691        11.89174         0.68854
C         17.40676        12.63604         1.13692
C         18.57927        14.84204         0.72891
C         17.35807        14.10751         0.94318
C         18.57942        16.26498         0.84119
C         17.32415        16.94597         0.99756
C         18.56038        19.11358         1.23572
C         17.29619        18.37543         1.00871
C         18.53875        20.62928         1.34028
C         17.20742        21.37724         1.21440
C         18.64379        23.28711         0.12106
C         17.29791        22.74329         0.55176
C         18.65192        24.80922        -0.09963
C         17.33391        25.53257        -0.29249
C         18.54942        27.74460        -0.16504
C         17.30848        27.01090        -0.28771
C         18.55686        29.16528        -0.24781
C         17.33813        29.86713        -0.69783
C         18.50409        32.08991        -0.42698
C         17.21250        31.32832        -0.30663
C         18.47545        33.49513        -0.59194
C         17.20981        34.19683        -0.81254
C         18.45059        36.37501        -1.08988
C         17.17034        35.58917        -0.94236
C         18.30264        37.82607        -0.68425
C         17.08573        38.45067        -0.79226
C         18.96077         4.57810        -2.62856
C         20.28312         6.67000        -2.36274
C         19.12965         5.89730        -2.08589
C         20.41488         7.95582        -1.87157
C         19.42220         8.53652        -1.03559
C         20.60344        10.76505        -1.04834
C         19.51180         9.93027        -0.57551
C         20.73868        12.06984        -0.70851
C         19.84618        12.69548         0.27687
C         20.97180        14.91339         0.24552
C         19.79981        14.17720         0.40852
C         20.98338        16.29999         0.42035
C         19.80844        16.99753         0.73016
C         20.99930        19.18275         1.05017
C         19.83660        18.43495         0.97308
C         20.99023        20.60173         1.14858
C         19.81820        21.33687         1.15957
C         20.80393        23.60450         1.36994
C         19.78984        22.77577         0.96467
C         20.78718        25.01029         1.12014
C         19.78775        25.62513         0.39320
C         20.91588        27.84448         0.41492
C         19.75749        27.06888         0.19646
C         20.90731        29.22890         0.30597
C         19.72626        29.92674        -0.02630
C         20.91039        32.14002        -0.16760
C         19.71480        31.39106        -0.20204
C         20.89114        33.52469        -0.27561
C         19.68870        34.23351        -0.47243
C         20.72799        36.45793        -0.09192
C         19.66283        35.69208        -0.49551
C         20.65780        37.89167        -0.05083
C         19.48861        38.55182        -0.31110
O          6.52852        18.19359         1.56093
O         18.54568        19.80398         2.55641
O         16.88775        12.21773         2.43711
O         10.83148        15.39683         2.22535
O         18.18686        25.09773        -1.45399
O          1.33075        22.93878         1.54250
O          9.04102         5.91541         2.35605
O          9.98514        14.60118        -1.19268
O         12.20818        21.80507        -0.88262
O          6.36942        33.46529        -1.86687
O         16.91848        29.43014        -2.01157
O          2.89572        27.31332         2.40692
O          3.09539        16.58095         0.69051
O          9.49827        27.42809         1.99570
O          9.98935        22.06110         2.27837
O         17.85131         8.68651         1.57877
O          5.85467        10.05311        -2.18346
O          5.35017        18.01662        -1.71316
O          7.82615        13.41926        -1.90070
O         15.62554         7.51478         1.85628
O          7.83230        25.23211        -0.70160
O          5.26416        20.69235         2.05819
O         10.28999         8.10492         2.35887
O         19.79311        12.02482         1.58359
O         10.36376        31.22444        -1.82750
O          3.18554        19.15444        -1.79538
O          7.62932        31.00809         1.68181
O          8.03478         8.73959        -1.33044
O         12.82485        35.78038        -2.75652
O         14.59272        30.42101        -2.25926
O          7.94047        17.49225        -1.74406
H          8.00239        16.69121        -2.30612
O         16.92281        31.24791         1.15077
H         17.03174        32.14981         1.52226
O         16.58604        20.52128        -0.93769
H         15.84764        20.17870        -1.48350
O         16.70974        21.61188         2.55026
H         17.10334        20.91309         3.12568
O         18.86582        22.66010        -1.18252
H         18.45297        23.26228        -1.84793
O          3.90863        25.32296        -0.69896
H          3.22450        24.91925        -1.27324
O          4.71555        25.28251         2.87182
H          3.97887        25.83717         3.21705
O         18.70597        36.40364        -2.54224
H         19.52541        36.92443        -2.68078
O         12.32958        31.59927         1.18273
H         13.10702        31.15856         1.58649
O          1.54037        33.76866         2.80782
H          1.61523        34.73316         2.97010
H          1.18757         2.35678        -0.24239
H         -0.88601         3.56705        -0.90293
H         -0.87213         6.00070        -1.26651
H         -0.86061         7.92949        -1.32437
H         -0.82690        10.34667        -1.47152
H         -0.79751        12.22049        -1.50153
H         -0.81056        14.63664        -1.37638
H         -0.88274        16.52786        -1.12796
H         -0.97343        18.89144        -0.64002
H         -0.81123        20.92034        -1.14075
H         -0.82675        23.34766        -0.93476
H         -0.86277        25.35348        -0.55633
H         -0.79464        27.79575        -0.21122
H         -0.94970        29.45578         1.22877
H         -0.91630        31.89771         1.42497
H         -0.96109        33.83501         1.34450
H         -0.97505        36.17177         0.65475
H          0.24165        38.28528         0.21351
H          3.58355         2.38536         0.30375
H          2.33591        39.48396        -0.37930
H          6.03110         2.40071         0.74060
H          4.78438        39.45438        -0.77297
H          8.43299         2.41416         0.73464
H          7.22494        39.43825        -1.07592
H         10.78874         2.44253        -0.07648
H          9.69549        39.44453        -1.26374
H         13.16429         2.50664        -0.88492
H         12.15461        39.45732        -1.25355
H         15.47087         2.65630        -1.80320
H         14.64456        39.49522        -1.04716
H         17.71371         2.84339        -2.81436
H         17.01352        39.53537        -0.61454
H         19.76357         4.16298        -3.25521
H         21.07508         6.24290        -2.99461
H         21.32064         8.51879        -2.13019
H         21.31489        10.34514        -1.77108
H         21.51241        12.68264        -1.19305
H         21.91108        14.39705         0.00464
H         21.93421        16.83740         0.30969
H         21.97735        18.69311         0.94416
H         21.95252        21.12857         1.07321
H         21.64154        23.19287         1.95130
H         21.60582        25.60727         1.54419
H         21.86393        27.34768         0.66177
H         21.84642        29.77207         0.47555
H         21.87786        31.63803        -0.03578
H         21.84372        34.06909        -0.21974
H         21.65430        35.98470         0.26390
H         21.55016        38.45136         0.26199
H         19.42232        39.64237        -0.18238
