         732
 CSIRO Nanostructure Databank - Neutral Graphene Oxide Data Set
C         23.32223        24.53008        -0.91322
C         22.19565        25.24367        -1.26209
C         23.27052        27.36104        -0.68442
C         22.15544        26.64691        -1.12586
C         23.25268        28.80845        -0.54749
C         22.06902        29.54687        -0.72364
C         23.21670        31.65659        -0.30084
C         22.05656        30.93597        -0.61255
C         23.22469        33.11433        -0.28487
C         22.10227        33.84671        -0.75101
C         23.20669        35.95686        -0.24717
C         22.08865        35.22321        -0.71860
C         23.18039        37.39670        -0.18339
C         22.02697        38.13821        -0.55916
C         23.12376        40.25723        -0.05246
C         21.99073        39.51239        -0.49004
C         23.10041        41.70065         0.02501
C         21.91595        42.45441        -0.23442
C         23.03987        44.56318         0.39914
C         21.87421        43.81435        -0.08992
C         23.01301        46.08454         0.54885
C         21.85822        46.81369        -0.00307
C         23.25787        48.73161        -0.54534
C         21.99610        48.04480        -0.55784
C         25.61993        23.04018         0.19211
C         25.58509        24.46682         0.09285
C         24.48971        25.19023        -0.42170
C         25.65121        27.36229        -0.07057
C         24.48761        26.64852        -0.38079
C         25.66211        28.78991         0.01529
C         24.44877        29.50879        -0.20179
C         25.60557        31.62085         0.34253
C         24.43144        30.93475        -0.04996
C         25.49900        33.05813         0.79836
C         24.36119        33.81955         0.15538
C         25.54441        35.96931         0.59435
C         24.36720        35.23889         0.16910
C         25.50652        37.36641         0.67327
C         24.32589        38.10687         0.28106
C         25.46281        40.29693         0.75398
C         24.28065        39.52763         0.32674
C         25.51685        41.72039         0.42100
C         24.32304        42.43545         0.25970
C         25.57445        44.58566         0.43963
C         24.33101        43.86726         0.35506
C         25.59497        46.05122         0.46560
C         24.32668        46.85475         0.75936
C         25.62171        48.92946         0.14499
C         24.36860        48.19745         0.05094
C         25.67327        50.33970        -0.00156
C         27.86117        23.00371         1.31147
C         26.66800        22.35461         0.73426
C         27.91254        24.50734         1.24782
C         26.73395        25.22994         0.64664
C         28.08084        27.35582         0.64398
C         26.94426        26.59453         0.02488
C         28.07727        28.77619         0.63342
C         26.85819        29.49831         0.34418
C         28.02911        31.63923         0.84991
C         26.82533        30.92027         0.50436
C         28.01147        33.09234         0.88939
C         26.80932        33.80470         0.75188
C         28.01292        35.92696         0.91369
C         26.79174        35.23198         0.79316
C         28.01666        37.36615         1.22525
C         26.69303        38.09118         1.18259
C         28.02269        40.31452         1.11002
C         26.71739        39.59076         1.16120
C         28.00295        41.68374         0.92294
C         26.83667        42.38575         0.24926
C         28.06473        44.55687         0.32584
C         26.77546        43.87071         0.45456
C         28.07321        46.06835         0.25564
C         26.77854        46.76022         0.39708
C         28.06254        48.91357         0.47458
C         26.82139        48.21909         0.38685
C         28.09282        50.34209         0.34910
C         26.86383        51.02425         0.11163
C         30.45226        20.22962         0.77802
C         29.26081        20.83757         0.95705
C         30.46952        22.97288         1.60431
C         29.16379        22.22536         1.44688
C         30.47667        24.49272         1.52173
C         29.21732        25.21948         1.22537
C         30.51918        27.32569         1.03070
C         29.23317        26.59110         1.01113
C         30.45280        28.77076         1.39200
C         29.23217        29.52012         1.02473
C         30.45145        31.67518         1.61418
C         29.22318        30.92889         1.09430
C         30.48446        33.11840         1.15565
C         29.25498        33.80894         0.98295
C         30.48350        35.96280         0.97951
C         29.25154        35.23285         0.93213
C         30.48026        37.42287         0.98372
C         29.28030        38.13304         1.12014
C         30.50412        40.25900         1.05956
C         29.27456        39.57099         1.16943
C         30.56335        41.70904         1.24684
C         29.21163        42.47475         1.15523
C         30.49348        44.57395         0.81076
C         29.29036        43.87723         0.74840
C         30.48516        46.01981         0.78503
C         29.31767        46.75795         0.63305
C         30.49957        48.91499         0.82895
C         29.30065        48.20306         0.68715
C         30.53731        50.33981         0.72679
C         29.33012        51.05110         0.45377
C         30.58068        53.15634         0.41369
C         29.43545        52.47130         0.18692
C         32.96231        18.75452         0.67962
C         32.95195        20.19958         0.88651
C         31.72614        20.90065         0.99064
C         32.97387        22.98940         1.35730
C         31.74595        22.28082         1.30118
C         32.96739        24.43883         1.44002
C         31.79223        25.14095         1.33164
C         33.06913        27.34177         1.43146
C         31.81339        26.60303         1.14549
C         33.03411        28.72868         1.47114
C         31.76575        29.48344         1.55471
C         32.90902        31.57853         0.99056
C         31.75263        30.94650         1.33465
C         33.01078        33.08243         1.21829
C         31.68992        33.82032         1.09538
C         32.96180        36.00478         1.02949
C         31.69120        35.24484         1.01783
C         32.94441        37.44354         0.73662
C         31.72014        38.13893         0.82395
C         32.94547        40.27987         0.59899
C         31.72691        39.56987         0.80534
C         32.98079        41.73566         0.62739
C         31.78228        42.45698         0.92034
C         32.99472        44.58127         0.72339
C         31.76123        43.86252         0.88341
C         33.01798        45.99747         0.80761
C         31.75453        46.69855         1.09730
C         33.03087        48.90480         0.83339
C         31.76143        48.21374         1.10660
C         33.01703        50.32418         0.77838
C         31.78101        51.02507         0.84691
C         33.07059        53.20063         0.86385
C         31.75198        52.50589         1.11107
C         33.12446        54.59480         0.96543
C         35.37306        18.83312         0.14272
C         34.08250        18.08899         0.34958
C         35.45490        20.09714         1.00192
C         34.17779        20.90164         0.97862
C         35.49079        23.02369         1.10732
C         34.21024        22.29379         1.16815
C         35.50178        24.39726         1.27428
C         34.27468        25.14029         1.75785
C         35.52299        27.32286         1.23800
C         34.29416        26.61976         1.45154
C         35.51316        28.73235         1.10540
C         34.31611        29.50560         1.61549
C         35.16188        31.17955         0.03954
C         34.14858        30.80108         0.87562
C         35.09139        33.27773        -0.30060
C         34.11780        33.82927         0.48470
C         35.38393        35.96347         0.15398
C         34.26189        35.25403         0.78927
C         35.36697        37.40388         0.16391
C         34.15932        38.12499         0.47579
C         35.37831        40.24582         0.14520
C         34.15112        39.55479         0.38068
C         35.35993        41.72024        -0.18007
C         34.16996        42.44345         0.38665
C         35.43914        44.58648         0.36455
C         34.21214        43.86594         0.48950
C         35.44592        46.00599         0.46157
C         34.21696        46.72226         0.65924
C         35.44947        48.87786         0.44050
C         34.23000        48.17184         0.67715
C         35.45778        50.30944         0.41204
C         34.25730        51.03168         0.61133
C         35.49211        53.17546         0.44271
C         34.26233        52.47403         0.62955
C         35.52143        54.59774         0.53025
C         34.32369        55.28340         0.80321
C         37.76022        16.08063         1.24653
C         36.56829        16.71740         0.91390
C         37.85314        18.70279         0.27096
C         36.61808        18.02902         0.44724
C         37.81332        20.16186         0.18135
C         36.69260        20.87087         0.59443
C         37.93205        22.98157         0.54295
C         36.71196        22.30039         0.74685
C         38.03735        24.41309         0.86930
C         36.76812        25.15936         1.25367
C         37.92356        27.30428         0.64142
C         36.75374        26.61896         1.03436
C         37.88230        28.71811         0.40190
C         36.65690        29.40934         0.59770
C         37.65122        31.53431        -0.31937
C         36.53321        30.75513         0.12235
C         37.59811        32.99894        -0.55226
C         36.43907        33.79465        -0.40997
C         37.64754        35.90247        -0.86550
C         36.46145        35.23282        -0.33997
C         37.70529        37.41703        -0.72229
C         36.54112        38.11229        -0.14252
C         37.85484        40.23279        -0.03872
C         36.55862        39.52792        -0.02700
C         37.87138        41.70274        -0.08606
C         36.67040        42.42677         0.04532
C         37.90489        44.53683         0.16822
C         36.69262        43.85910         0.17355
C         37.97315        46.01010         0.47972
C         36.66489        46.74172         0.35080
C         37.89450        48.85862        -0.06094
C         36.67188        48.14432         0.27910
C         37.87700        50.30797        -0.16655
C         36.68779        51.02147         0.14035
C         37.88792        53.16467        -0.16828
C         36.69508        52.44904         0.15640
C         37.93275        54.60387        -0.07052
C         36.77686        55.30758         0.34050
C         38.05421        57.38782         0.36701
C         36.86868        56.70314         0.56550
C         40.73967        14.26782        -0.15520
C         40.90181        15.52071         0.33596
C         38.97782        16.70147         0.95029
C         40.35050        18.57881        -0.21039
C         39.08434        17.98849         0.37520
C         40.33478        20.09182        -0.44574
C         39.02593        20.87956        -0.23724
C         40.30903        23.02290        -0.14023
C         39.09590        22.32154         0.05476
C         40.33488        24.46171        -0.05786
C         39.17680        25.18239         0.34556
C         40.30032        27.33647        -0.08169
C         39.14183        26.59063         0.32313
C         40.25876        28.74546        -0.24876
C         39.00819        29.45637        -0.08484
C         40.09821        31.52287        -1.03045
C         38.90376        30.84615        -0.38139
C         40.09986        33.02164        -0.88660
C         38.86300        33.72387        -0.76991
C         40.09444        35.85885        -1.45089
C         38.87699        35.12280        -0.94198
C         40.15509        37.33861        -1.08610
C         39.03493        38.04577        -0.73637
C         40.27073        40.24803        -0.84252
C         39.12768        39.47360        -0.35335
C         40.25664        41.62755        -0.72177
C         39.11843        42.34498        -0.22526
C         40.33733        44.54111        -0.51749
C         39.21859        43.79080         0.16617
C         40.25053        45.98079        -0.56679
C         39.11057        46.70755        -0.23849
C         40.17238        48.83554        -1.10256
C         39.04873        48.13694        -0.37762
C         40.24682        50.33098        -0.95424
C         39.03878        51.04037        -0.58475
C         40.10408        53.22721        -1.32124
C         39.03108        52.44925        -0.59191
C         40.31278        54.63394        -0.78193
C         39.16435        55.31933        -0.31354
C         40.43112        57.47310        -0.38886
C         39.21692        56.73216        -0.09261
C         40.47033        58.88115        -0.27126
C         42.83894        14.46747        -1.37403
C         41.72075        13.74459        -1.06922
C         43.05209        15.80773        -0.89346
C         42.07153        16.41891         0.09411
C         42.93472        18.71831        -0.53304
C         41.68938        17.86830        -0.34910
C         42.82422        20.19595        -0.72169
C         41.58314        20.87640        -0.46260
C         42.71836        23.05919        -0.64243
C         41.52994        22.30514        -0.44523
C         42.74908        24.48224        -0.54116
C         41.52798        25.19423        -0.31109
C         42.73657        27.33665        -0.52096
C         41.52620        26.62097        -0.30598
C         42.73020        28.76791        -0.58278
C         41.46890        29.47308        -0.52681
C         42.63791        31.61535        -0.82285
C         41.42902        30.87040        -0.70880
C         42.60295        33.03241        -0.90481
C         41.33258        33.75018        -0.93960
C         42.58480        35.92818        -0.70894
C         41.35288        35.14123        -1.07542
C         42.61456        37.36641        -1.18576
C         41.41380        38.04371        -1.26461
C         42.63779        40.21407        -1.79256
C         41.28434        39.50440        -1.68469
C         42.66419        41.71703        -1.69030
C         41.40825        42.41273        -1.22848
C         42.67705        44.53947        -1.45280
C         41.45526        43.86065        -0.94543
C         42.70441        46.01955        -1.34643
C         41.52001        46.70861        -0.77041
C         42.73864        48.88674        -1.23884
C         41.50214        48.18570        -0.84261
C         42.68933        50.26180        -1.41399
C         41.42910        50.97939        -1.28649
C         42.69100        53.20858        -1.68464
C         41.40206        52.44631        -1.54985
C         42.69849        54.66233        -1.41888
C         41.54074        55.33883        -1.00211
C         42.78119        57.51849        -1.13621
C         41.59490        56.78247        -0.82966
C         42.76696        58.92042        -1.01529
C         41.62136        59.59148        -0.58879
C         45.30820        15.97462        -1.91599
C         44.15410        16.55496        -1.27661
C         45.29192        18.78226        -1.60202
C         44.19652        18.01150        -0.99309
C         45.17350        20.27007        -1.74432
C         43.94036        20.89937        -1.13343
C         45.23158        23.11141        -1.12454
C         43.91486        22.36313        -1.12528
C         45.25938        24.46594        -0.46665
C         43.96657        25.21442        -0.62092
C         45.21282        27.35424        -0.74862
C         43.97375        26.62332        -0.62219
C         45.19684        28.76595        -0.86336
C         43.93828        29.47290        -0.77028
C         45.09073        31.61017        -1.12763
C         43.91338        30.91257        -0.86199
C         45.04104        33.04147        -1.32586
C         43.80977        33.77910        -1.06629
C         45.07552        35.90311        -0.90355
C         43.85218        35.18241        -1.02281
C         45.08103        37.36003        -0.96434
C         43.89414        38.03050        -1.26933
C         45.20994        40.22914        -1.57734
C         43.91946        39.46009        -1.66892
C         45.19371        41.69592        -1.39197
C         43.97227        42.41917        -1.50234
C         45.19778        44.54631        -1.26674
C         43.97443        43.81687        -1.41606
C         45.21053        45.97784        -1.18884
C         43.98976        46.73275        -1.24308
C         45.21162        48.83155        -0.91280
C         43.96064        48.12034        -1.18590
C         45.20115        50.32119        -0.98345
C         43.97865        50.99218        -1.53120
C         45.19387        53.20846        -0.98412
C         44.00766        52.47999        -1.59711
C         45.30478        54.60031        -1.60211
C         43.94421        55.37809        -1.70777
C         45.23447        57.45968        -1.64966
C         44.00544        56.82896        -1.53576
C         46.44162        16.69322        -2.14962
C         47.70883        18.86000        -2.10142
C         46.48100        18.13478        -1.97877
C         47.69628        20.36174        -1.93712
C         46.47466        20.87356        -1.15961
C         47.70710        23.07935        -1.09110
C         46.49995        22.37913        -1.13092
C         47.70327        24.53535        -1.02086
C         46.49785        25.23495        -0.84611
C         47.68579        27.36526        -0.99770
C         46.46106        26.64877        -0.85644
C         47.65942        28.80451        -1.05359
C         46.42475        29.47235        -1.05742
C         47.61853        31.68500        -0.93590
C         46.39962        30.92863        -1.45183
C         47.60719        33.07247        -0.73799
C         46.40990        33.85515        -1.08301
C         47.41079        35.93379         0.01258
C         46.29036        35.23203        -0.70572
C         47.50180        37.39003        -0.40234
C         46.35863        38.03947        -0.84919
C         47.63541        40.24138        -0.76137
C         46.46170        39.47160        -1.20512
C         47.63318        41.64580        -0.86746
C         46.41279        42.37731        -1.16174
C         47.66333        44.50962        -0.99816
C         46.43130        43.81519        -1.14323
C         47.68394        45.94692        -1.00093
C         46.45267        46.67805        -1.05852
C         47.68646        48.81972        -0.91512
C         46.47991        48.09739        -0.97778
C         47.71954        50.26871        -0.94016
C         46.49594        51.03915        -1.06462
C         47.74037        53.14242        -0.82496
C         46.48636        52.41407        -1.05140
C         47.77539        54.67863        -1.02543
C         46.52682        55.38499        -1.43597
C         46.46849        56.75001        -1.62311
C         50.15876        18.92954        -2.21001
C         48.96065        18.27323        -2.41790
C         50.23163        20.17272        -1.43995
C         48.93501        20.92386        -1.26487
C         50.19106        23.08761        -1.10905
C         48.95886        22.38733        -1.13112
C         50.19021        24.51405        -1.12101
C         48.93868        25.24436        -1.12046
C         50.15772        27.42144        -1.27404
C         48.90648        26.65821        -1.11331
C         50.14799        28.87744        -1.02466
C         48.90479        29.54526        -1.02858
C         50.03829        31.69900        -0.61494
C         48.84649        30.97760        -0.84862
C         49.99280        33.06355        -0.28508
C         48.76852        33.77865        -0.29950
C         49.88512        35.93595         0.22833
C         48.73745        35.21075        -0.06201
C         49.92369        37.39481         0.18532
C         48.74537        38.09792        -0.21168
C         50.01746        40.22517        -0.12649
C         48.79676        39.52177        -0.35370
C         50.04345        41.65034        -0.27477
C         48.85230        42.36043        -0.61221
C         50.11270        44.47195        -0.58859
C         48.88708        43.78206        -0.75144
C         50.20573        45.92211        -0.99989
C         48.89774        46.66310        -0.88500
C         50.13775        48.78173        -0.62087
C         48.90985        48.07593        -0.83871
C         50.17161        50.19983        -0.68098
C         48.95361        50.94306        -0.88035
C         50.21024        53.07793        -0.96365
C         49.00480        52.38982        -0.89220
C         50.22063        54.47928        -1.25475
C         49.08001        55.22586        -1.37391
C         52.71812        20.29388        -1.30925
C         51.48911        20.95058        -1.29765
C         52.66654        23.08647        -0.95622
C         51.44423        22.36583        -1.12105
C         52.62463        24.51240        -0.81061
C         51.42892        25.20689        -0.99014
C         52.67231        27.43271        -0.74211
C         51.46628        26.67926        -1.15202
C         52.63232        28.87163        -0.71114
C         51.39051        29.55663        -0.88354
C         52.60876        31.80816        -0.59582
C         51.33944        31.03321        -0.84119
C         52.52380        33.13565         0.03710
C         51.20199        33.72374         0.23171
C         52.39140        35.93053         0.73365
C         51.12311        35.21449         0.55690
C         52.31597        37.40398         1.07131
C         51.12742        38.10288         0.43753
C         52.44823        40.22562         0.38627
C         51.19628        39.50707         0.24696
C         52.47162        41.64342         0.23357
C         51.26537        42.36199        -0.06786
C         52.52145        44.51027         0.00603
C         51.29055        43.77964        -0.22636
C         52.53069        45.92074         0.00616
C         51.35075        46.65974        -0.35526
C         52.42762        48.79180         0.41290
C         51.31625        48.04119        -0.27162
C         52.54398        50.22902        -0.03548
C         51.40906        50.89391        -0.52698
C         52.66712        53.04291        -0.36845
C         51.52068        52.31796        -1.01951
C         53.91772        21.00567        -1.16311
C         55.19279        23.15172        -0.95746
C         53.91391        22.38703        -0.99054
C         55.14483        24.63502        -0.68891
C         53.82761        25.23971        -0.26675
C         55.04261        27.42980        -0.07719
C         53.83595        26.74232        -0.43874
C         55.03472        28.87335        -0.04543
C         53.85870        29.56441        -0.41050
C         55.07540        31.76707         0.10028
C         53.89249        31.04054        -0.48507
C         54.91384        33.14442         0.59796
C         53.65570        33.81283         0.52016
C         54.73767        35.94123         1.49909
C         53.55344        35.22265         0.89050
C         54.81409        37.39891         1.08536
C         53.64512        38.09904         0.84851
C         54.91713        40.21310         0.65296
C         53.66859        39.52034         0.62201
C         54.93829        41.65139         0.49532
C         53.70716        42.35960         0.34546
C         54.95592        44.48745         0.44878
C         53.73073        43.78612         0.26739
C         54.96411        45.92149         0.50699
C         53.74027        46.64246         0.31864
C         54.93120        48.76802         0.63447
C         53.73815        48.05063         0.38762
C         54.92243        50.21169         0.66580
C         53.73739        50.92944         0.25082
C         53.72434        52.37098         0.14651
C         57.56940        23.19618        -0.29407
C         56.46884        22.48598        -0.66939
C         57.54845        24.61265        -0.03928
C         56.33751        25.31908        -0.14276
C         57.33554        27.34133         0.98095
C         56.22369        26.69471         0.19901
C         57.41447        28.84062         0.79727
C         56.23682        29.58035         0.38445
C         57.36569        31.69458         1.05651
C         56.23855        30.97559         0.53300
C         57.29136        33.05358         1.30942
C         56.06542        33.80756         1.10045
C         57.27719        35.94153         1.36288
C         56.02872        35.19419         1.33402
C         57.26036        37.40142         1.44794
C         56.08051        38.09120         1.17606
C         57.39160        40.19022         0.93374
C         56.12044        39.51895         0.95238
C         57.42795        41.55298         0.25035
C         56.16529        42.34997         0.49778
C         57.42115        44.48618         0.72378
C         56.18878        43.76498         0.53725
C         57.40276        45.90237         0.93639
C         56.15819        46.62744         0.79018
C         57.32446        48.77890         1.22809
C         56.14870        48.05414         0.87215
C         57.26876        50.16530         1.33271
C         56.09954        50.87598         1.02899
C         60.02330        24.68639         0.33522
C         58.75828        25.31208         0.38154
C         59.83757        27.33782         1.22938
C         58.67373        26.65645         0.81536
C         59.74377        28.75006         1.59990
C         58.56760        29.48821         1.19632
C         59.70675        31.59434         2.04189
C         58.70143        30.98877         1.08082
C         59.68846        33.02254         2.21828
C         58.37042        33.75112         2.10785
C         59.74142        35.92971         2.13472
C         58.55244        35.18551         1.66212
C         59.77071        37.35574         1.91105
C         58.47586        38.14753         1.92133
C         59.85624        40.14464         1.23909
C         58.56458        39.52526         1.29559
C         59.96154        41.59629         0.94419
C         58.71270        42.34029         0.51778
C         59.84752        44.46452         1.13732
C         58.65929        43.78751         0.80544
C         59.84395        45.90539         1.24458
C         58.59580        46.59448         1.20990
C         59.85483        48.75529         1.29392
C         58.57494        48.04178         1.64125
C         61.16924        25.36541         0.74084
C         61.08376        26.68226         1.18781
C         60.76213        29.40205         2.27742
C         60.70144        30.79105         2.56297
C         60.80227        33.76093         2.58018
C         60.81113        35.18546         2.60375
C         60.96713        38.02559         1.76452
C         61.00882        39.41397         1.48467
C         61.03404        42.36837         1.58295
C         61.01409        43.72499         1.55151
C         61.04573        46.64111         1.28597
C         61.02661        48.05895         1.21072
O         45.86932        33.54719        -2.40809
O         31.29142        27.03703        -0.19475
O         50.95863        34.19854         1.61176
O         40.09740        15.98127         1.38735
O         28.26811        22.40293         2.58644
O         59.74801        41.98132        -0.46582
O         47.66084        54.08626         0.31694
O         25.83029        40.11422         2.21072
O         40.76996        17.90286        -1.46792
O         50.94186        27.07034        -2.46997
O         37.39058        36.78452        -2.03049
O         26.88932        25.16257         2.09010
O         43.98196        18.40772         0.42914
O         27.22711        37.60536         2.45496
O         45.04140        49.68370         0.31583
O         55.25447        24.16181        -2.05074
O         38.74305        39.72888         1.04285
O         34.83978        32.08839        -0.97599
O         30.94805        29.07374         2.74217
O         44.29730        51.69461        -2.78248
O         29.86479        42.19090         2.42896
O         37.72956        24.71885         2.27883
O         58.23057        35.44999         0.28752
O         28.19997        45.27073        -0.98184
O         42.44833        45.38772        -2.64359
O         41.73579        42.26559        -2.67215
O         33.89741        35.69705         2.14036
O         39.48212        20.47903        -1.57700
O         41.94106        52.78927        -2.87962
O         44.47378        23.01997        -2.37978
O         44.64599        54.81032        -2.86640
O         22.71698        45.25560         1.71378
O         31.75431        47.43950         2.36491
O         41.75869        47.52553         0.44094
O         30.48222        23.76821         2.81747
O         43.31241        39.72258        -2.99642
O         54.90199        31.61340        -1.37742
O         52.05247        31.71506        -1.95467
O         46.13601        39.77290        -2.61665
O         49.44491        20.13293        -0.15914
O         39.50968        53.45576        -2.64229
H         40.26753        53.50788        -3.27505
O         51.85569        52.23181        -2.45678
H         52.69972        51.73729        -2.52999
O         39.93819        48.59942        -2.53543
H         39.15813        49.12791        -2.80705
O         35.41831        19.25949        -1.24265
H         35.48171        18.46369        -1.80973
O         39.98016        35.83690        -2.92018
H         39.10543        36.24083        -3.13139
O         56.95311        27.15235         2.39997
H         56.81581        26.19047         2.53698
O         25.14948        32.97008         2.22998
H         25.18910        33.87816         2.59971
O         57.84635        33.84148         3.47725
H         57.90475        32.95084         3.88311
O         44.88960        53.40724         0.42329
H         45.73052        53.68726         0.85949
O         47.04698        35.92620         1.44063
H         47.81048        36.28612         1.94132
O         59.27601        31.23842        -0.25101
H         58.61508        30.95427        -0.91810
O         57.39058        41.26230        -1.17821
H         58.33113        41.21887        -1.47461
O         27.36123        26.30754        -1.36091
H         27.53403        27.16467        -1.80502
O         42.52511        36.03565         0.76866
H         42.67476        35.13937         1.13871
O         38.31635        46.11288         1.91031
H         39.06892        45.48765         2.06339
O         54.45637        35.98373         2.96174
H         54.41978        35.05641         3.28171
O         34.52914        29.77160         3.03760
H         34.47424        28.91678         3.51454
O         39.66108        43.75681         1.60019
H         39.06627        43.13161         2.06999
O         27.16214        42.22635        -1.21468
H         27.42764        43.10880        -1.56000
O         24.39503        47.17188         2.17895
H         23.95128        46.42713         2.64890
O         46.51462        30.93414        -2.91300
H         46.41646        31.87521        -3.19728
O         50.52150        45.89618        -2.44538
H         49.79553        45.41251        -2.89445
O         39.92375        31.28564        -2.48308
H         39.94448        30.31512        -2.62573
O         52.07582        37.46799         2.51555
H         52.83582        36.99970         2.94632
O         34.36277        25.07672         3.23108
H         34.26605        24.13718         3.49584
O         30.28906        31.74339         3.06007
H         30.45882        30.83279         3.40327
O         35.16129        41.76654        -1.65088
H         34.30507        41.32892        -1.84554
O         46.51946        20.39471         0.19968
H         47.43075        20.50353         0.55022
O         40.71523        39.47696        -3.02184
H         41.47183        39.41843        -3.65011
O         42.73365        16.48013         1.38226
H         42.03591        16.48800         2.07316
O         45.10614        20.55433        -3.17401
H         44.83949        21.51080        -3.25372
O         31.49473        52.66057         2.55676
H         30.67821        52.15728         2.76322
O         52.04108        48.86595         1.83712
H         51.99464        47.94678         2.17631
O         45.39078        24.17362         0.97026
H         45.41483        25.02921         1.44849
O         58.22734        38.39250         3.36819
H         57.35975        38.84571         3.44228
O         47.71242        20.93276        -3.26798
H         46.83029        20.73369        -3.67455
O         53.78591        25.00890         1.18843
H         52.95113        25.39087         1.53251
O         33.40787        33.12956         2.61866
H         33.51537        34.08111         2.86733
O         35.64259        19.65907         2.37763
H         35.67468        20.45506         2.94831
O         58.52864        48.01316         3.12439
H         59.34188        47.55378         3.42510
H         23.30958        23.43587        -1.00312
H         21.30633        24.71560        -1.63327
H         21.22698        27.16856        -1.39307
H         21.12581        29.03583        -0.95712
H         21.10347        31.45740        -0.77048
H         21.21873        33.32139        -1.13570
H         21.19029        35.74616        -1.07016
H         21.12918        37.61396        -0.91098
H         21.07147        40.03077        -0.79233
H         20.99450        41.93458        -0.53044
H         20.92145        44.34064        -0.23514
H         20.87250        46.32984         0.02559
H         23.30668        49.72357        -1.01662
H         21.12564        48.55327        -0.99507
H         24.76313        22.45935        -0.17721
H         24.74534        50.90342        -0.17010
H         26.59125        21.26276         0.82801
H         26.85407        52.11913         0.02942
H         30.45612        19.18725         0.43434
H         28.33375        20.27049         0.79781
H         30.62454        54.23155         0.18697
H         28.57529        52.99831        -0.24984
H         32.02170        18.19677         0.78148
H         32.21095        55.16115         1.19264
H         34.03141        17.01197         0.13069
H         34.31293        56.37794         0.88489
H         37.76584        15.08581         1.70858
H         35.61069        16.21169         1.09069
H         38.06704        58.46720         0.56517
H         35.99433        57.26557         0.91738
H         39.88902        13.64943         0.15901
H         39.58562        59.43831         0.06142
H         43.57112        14.03792        -2.07086
H         41.57420        12.74283        -1.49440
H         43.66177        59.50591        -1.26284
H         41.63068        60.68659        -0.50192
H         45.32044        14.89321        -2.10788
H         45.29766        58.55479        -1.59386
H         47.33415        16.17958        -2.53147
H         47.39165        57.34522        -1.57304
H         51.08814        18.49615        -2.60748
H         48.99132        17.26694        -2.86346
H         51.17962        54.94701        -1.51869
H         49.13428        56.23113        -1.81504
H         52.75522        19.20300        -1.43566
H         52.69384        54.14118        -0.40954
H         54.86532        20.45249        -1.20533
H         54.57820        52.94365         0.53461
H         58.49937        22.64245        -0.10634
H         56.53418        21.39037        -0.72659
H         58.15201        50.73125         1.65772
H         56.12525        51.97139         1.09651
H         60.12124        23.65655        -0.03161
H         59.87009        49.85255         1.24135
H         62.14580        24.86382         0.69679
H         61.99853        27.21286         1.48439
H         61.62822        28.83616         2.64728
H         61.47445        31.22492         3.21371
H         61.75304        33.24468         2.77812
H         61.72833        35.69262         2.93532
H         61.91582        37.47219         1.80848
H         61.99072        39.89751         1.39151
H         61.86155        41.84022         2.07637
H         61.85557        44.27854         1.99081
H         62.01337        46.12492         1.24172
H         61.97619        48.59325         1.06124
