         204
 CSIRO Nanostructure Databank - Neutral Graphene Oxide Data Set
C        -10.86008         0.73633        -1.07341
C         -9.77250         1.36340        -0.32874
C         -8.59398         0.67301         0.13382
C         -7.36909         1.37494         0.42276
C         -6.18522         0.66689         0.75536
C         -4.92661         1.38204         0.90442
C         -3.74277         0.68468         1.09560
C         -2.47609         1.36860         0.60977
C         -1.16525         0.73016         0.96280
C          0.02852         1.41388         0.82077
C          1.29338         0.69886         0.81030
C          2.50412         1.39355         0.59475
C          3.74884         0.68569         0.49718
C          4.96301         1.39841         0.27456
C          6.21157         0.69674         0.21623
C          7.39884         1.42154        -0.05276
C          8.70682         0.74920         0.00617
C          9.88069         1.42428        -0.58397
C         11.07790         0.64352        -0.77700
C         -9.74831         2.75896        -0.26470
C         -8.59315         3.47082         0.11864
C         -7.38441         2.80698         0.39305
C         -6.14053         3.52958         0.57001
C         -4.93409         2.83380         0.73241
C         -3.68931         3.56992         0.79962
C         -2.45859         2.87100         0.81813
C         -1.23280         3.57696         0.82120
C          0.03522         2.86066         0.72843
C          1.25438         3.52619         0.62880
C          2.49508         2.82127         0.47940
C          3.69665         3.52491         0.21755
C          4.93045         2.81253         0.08709
C          6.12394         3.50759        -0.26973
C          7.35800         2.79895        -0.36579
C          8.55584         3.49382        -0.77664
C          9.78421         2.75437        -0.93001
C         -8.69497         4.97029         0.19678
C         -7.36112         5.66980         0.19439
C         -6.15281         4.97056         0.46361
C         -4.94136         5.70718         0.60106
C         -3.69651         4.99866         0.79450
C         -2.46400         5.70408         0.87253
C         -1.24760         5.00303         0.87605
C          0.03040         5.75293         0.93596
C          1.32015         4.99086         0.77328
C          2.50534         5.69954         0.25925
C          3.68186         4.95494         0.02356
C          4.86977         5.63027        -0.38608
C          6.09048         4.90857        -0.53573
C          7.27900         5.58974        -0.94083
C          8.49194         4.85790        -1.06669
C         -7.34437         7.03899        -0.04564
C         -6.14619         7.77783         0.05143
C         -4.96243         7.11647         0.43343
C         -3.76016         7.92195         0.72539
C         -2.46502         7.18442         1.01165
C         -1.17816         7.94188         0.86152
C          0.05269         7.19434         0.60288
C          1.21750         7.83547         0.19703
C          2.45592         7.09359         0.01441
C          3.62014         7.75187        -0.46881
C          4.83192         7.03014        -0.63937
C          6.02618         7.69893        -1.08156
C          7.21580         6.98253        -1.21943
C         -6.12558         9.20153        -0.22158
C         -4.97235         9.91901        -0.18193
C         -3.71270         9.31731         0.21394
C         -2.53673         9.99410         0.05513
C         -1.22395         9.41923         0.39181
C         -0.01820         9.93814        -0.24070
C          1.17707         9.23432        -0.22066
C          2.37721         9.84900        -0.71239
C          3.57399         9.15674        -0.80305
C          4.78488         9.79937        -1.25664
C          5.95457         9.10953        -1.37753
C        -10.94976        -0.53654        -1.56299
C        -10.05140        -1.60002        -1.13063
C         -8.54831        -0.71909         0.20957
C         -7.34028        -1.44303         0.22767
C         -6.14964        -0.76600         0.67267
C         -5.00333        -1.53135         1.00837
C         -3.77329        -0.76413         1.59176
C         -2.40965        -1.44428         1.38451
C         -1.12177        -0.66533         1.48655
C          0.10300        -1.44748         1.06939
C          1.30259        -0.73377         0.86217
C          2.53673        -1.44788         0.69838
C          3.76361        -0.73488         0.56286
C          5.00053        -1.44788         0.45272
C          6.22972        -0.73943         0.32898
C          7.44416        -1.47593         0.19255
C          8.73155        -0.76278         0.14081
C          9.93003        -1.49405        -0.32096
C         11.10149        -0.72024        -0.65290
C         -9.39719        -2.55198        -1.83873
C         -8.22982        -3.38191        -1.32305
C         -7.33419        -2.79182        -0.22263
C         -6.22886        -3.56436         0.15464
C         -5.14626        -2.94549         0.88545
C         -4.11760        -3.84685         1.28548
C         -2.24092        -2.77802         1.62839
C         -1.11514        -3.59305         1.20867
C          0.10212        -2.86408         1.01704
C          1.30503        -3.58260         0.74293
C          2.53481        -2.86666         0.66098
C          3.76669        -3.58133         0.53247
C          4.99627        -2.87460         0.44916
C          6.22089        -3.60061         0.29073
C          7.44655        -2.87733         0.12243
C          8.67388        -3.60761        -0.13930
C          9.88150        -2.86660        -0.41813
C         -8.61566        -4.83163        -0.94215
C         -7.36491        -5.65658        -0.67753
C         -6.19787        -4.98799        -0.11522
C         -5.00755        -5.69423         0.07630
C         -3.87019        -5.06065         0.67387
C         -2.50202        -5.62785         0.48613
C         -1.20875        -4.96384         0.85970
C          0.00187        -5.67219         0.53132
C          1.25734        -4.99169         0.56729
C          2.50776        -5.70845         0.41911
C          3.74962        -5.00270         0.47386
C          4.98112        -5.72328         0.40883
C          6.21703        -5.01230         0.30000
C          7.45554        -5.74670         0.09207
C          8.65471        -4.99440        -0.17088
C         -7.34972        -6.99238        -0.97217
C         -6.24187        -7.86949        -0.55358
C         -4.98178        -7.16003        -0.03085
C         -3.70261        -7.85978        -0.08949
C         -2.45789        -7.07984         0.02765
C         -1.18356        -7.80713         0.10634
C         -0.00659        -7.08654         0.22342
C          1.26181        -7.77634        -0.22617
C          2.52493        -7.09608         0.21111
C          3.74334        -7.81961         0.23026
C          4.96329        -7.14255         0.38605
C          6.25160        -7.89696         0.60298
C          7.45542        -7.12892         0.12720
C         -6.02485        -9.22344        -1.08206
C         -4.85063        -9.88053        -0.87075
C         -3.65732        -9.22008        -0.36960
C         -2.39168        -9.90908        -0.32483
C         -1.19807        -9.24761        -0.07725
C          0.06501        -9.95077        -0.01105
C          1.25921        -9.27210         0.00597
C          2.52782        -9.95137         0.00857
C          3.72445        -9.27021         0.06283
C          5.00243        -9.95137        -0.06912
C          6.18006        -9.31592         0.10590
O          8.97944         0.10439         1.30128
O         -3.26709        -3.44726         2.30896
O          0.86804         5.44248         2.10616
O         -3.28571         7.69849         2.09945
O         -2.40443        -5.97902        -0.96084
O         -1.03308         9.04026         1.79774
O         -4.02601        -0.70444         3.02694
H         -3.97626        -1.62715         3.36125
O          1.26422        -7.62036        -1.69743
H          0.38886        -7.92378        -2.02177
O         -9.44977        -4.83881         0.21722
H         -8.96034        -4.41935         0.95485
O          6.42077        -8.00710         2.07186
H          6.48369        -7.09312         2.42312
O         -9.72061        -1.47713         0.24051
O         -5.95233        -7.78227         0.88328
O         -2.55550         1.20697        -0.87906
H         -1.76407         1.64670        -1.25863
O         -0.94700        -0.47763         2.95590
H         -0.90938        -1.36797         3.36669
O         -7.34081        -3.54286        -2.46350
H         -6.98230        -2.66261        -2.70074
O         -9.53873         5.48298        -0.84596
H         -9.10742         5.29661        -1.70479
H         12.03257        -1.26551        -0.86883
H         11.99041         1.17238        -1.09087
H         10.66065         3.27606        -1.34419
H          9.40194         5.38547        -1.38980
H          8.12755         7.50363        -1.54818
H          6.86770         9.62037        -1.71700
H          4.74567        10.87167        -1.49888
H          2.33994        10.91035        -1.00045
H         -0.06380        10.91540        -0.74508
H         -2.55294        10.99980        -0.39354
H         -4.97151        10.98617        -0.44844
H         -7.06961         9.68606        -0.51020
H         -8.28428         7.55240        -0.29488
H         -9.21497         5.22700         1.16428
H        -10.62598         3.33754        -0.59032
H        -11.61767         1.45248        -1.43397
H        -11.73571        -0.76496        -2.29957
H         -9.62247        -2.67706        -2.90824
H         -9.20154        -5.29150        -1.77553
H         -8.20481        -7.44548        -1.49778
H         -6.84187        -9.71471        -1.63149
H         -4.74119       -10.91781        -1.22183
H         -2.37813       -10.99449        -0.50397
H          0.05347       -11.05123         0.01916
H          2.53094       -11.05121        -0.05054
H          4.98627       -11.01444        -0.35574
H          7.12730        -9.86311        -0.01552
H          8.40047        -7.67538        -0.01578
H          9.58511        -5.54537        -0.37512
H         10.77777        -3.42500        -0.72926
