         276
 CSIRO Nanostructure Databank - Neutral Graphene Oxide Data Set
C        -11.23952         0.71442         0.53291
C        -10.19134         1.54570        -0.18257
C         -8.89181         0.75625        -0.31691
C         -7.58250         1.50087        -0.28727
C         -6.31643         0.83463         0.27985
C         -5.14582         1.44485        -0.49103
C         -3.88589         0.67780        -0.71504
C         -2.58042         1.35683        -1.16523
C         -1.31349         0.75881        -0.58882
C         -0.01911         1.49354        -0.69577
C          1.25422         0.73261        -0.84632
C          2.47388         1.52304        -1.21387
C          3.79452         0.77833        -1.24245
C          5.05186         1.48435        -0.79064
C          6.24202         0.67180        -0.27009
C          7.51220         1.54091        -0.31821
C          8.82857         0.82659        -0.19409
C         10.05270         1.64860         0.24355
C         11.21711         0.74239         0.60714
C         -9.98476         2.91233         0.47775
C         -8.83423         3.62067         0.45215
C         -7.60845         3.00544        -0.12766
C         -6.29947         3.72352        -0.08733
C         -5.02881         2.91985        -0.20738
C         -3.71248         3.61687        -0.35040
C         -2.57686         2.92087        -1.06087
C         -1.29089         3.70528        -1.16802
C         -0.01264         3.00622        -0.81841
C          1.25201         3.78976        -0.67186
C          2.50125         3.03446        -1.08828
C          3.79341         3.74948        -0.78482
C          5.02782         2.97879        -0.45135
C          6.00430         3.44152         0.63582
C          7.39512         2.93985         0.21868
C          8.57650         3.62126         0.81555
C          9.70657         2.72120         1.29139
C         -8.75407         5.04468         1.01772
C         -7.50233         5.82667         0.62675
C         -6.21350         5.01644         0.74670
C         -4.91189         5.80806         0.39433
C         -3.66750         5.11448        -0.09254
C         -2.54323         5.93400        -0.67120
C         -1.30273         5.23052        -1.12574
C         -0.00619         5.99580        -1.23349
C          1.22519         5.34620        -0.60900
C          2.58156         5.95354        -1.05983
C          3.64001         5.15343        -0.27888
C          4.78956         5.76180         0.44283
C          5.98401         4.98133         1.03274
C          7.30194         5.75003         0.88527
C          8.53019         4.96416         1.02304
C         -7.51626         7.17481         0.51723
C         -6.31508         7.97753         0.14245
C         -5.00625         7.25740         0.01047
C         -3.73723         8.07072         0.04361
C         -2.43816         7.37691        -0.28251
C         -1.27739         8.18341        -0.69683
C         -0.02443         7.51689        -1.10113
C          1.28435         8.23180        -0.80440
C          2.56997         7.46010        -0.75966
C          3.75247         8.06826        -0.05290
C          4.91762         7.24789         0.38505
C          5.98118         7.86817         1.29685
C          7.27787         7.10880         1.04084
C         -6.21346         9.43686         0.42016
C         -5.07725        10.14620         0.25761
C         -3.83501         9.53212        -0.35636
C         -2.50692        10.21880        -0.12014
C         -1.30428         9.57582        -0.38276
C         -0.01724        10.39759        -0.48703
C          1.23587         9.59465        -0.19023
C          2.33355        10.14970         0.36951
C          3.55389         9.34410         0.77485
C          4.88922        10.06124         0.82783
C          6.01825         9.36577         1.05063
C        -11.17145        -0.62095         0.69996
C        -10.00579        -1.41903         0.29179
C         -8.86033        -0.69040        -0.10140
C         -7.57993        -1.38021        -0.35409
C         -6.35150        -0.73803         0.30646
C         -5.04568        -1.41475        -0.10896
C         -3.86815        -0.75239        -0.30128
C         -2.55942        -1.45692        -0.15317
C         -1.27822        -0.73802        -0.42220
C         -0.01590        -1.47492        -0.87775
C          1.25870        -0.63010        -0.74333
C          2.44496        -1.45512        -1.12160
C          3.73793        -0.74066        -1.54617
C          5.07645        -1.45561        -1.16825
C          6.36183        -0.71778        -0.90249
C          7.62413        -1.53896        -0.52703
C          8.81237        -0.66398        -0.10745
C          9.81850        -1.29239         0.87374
C         11.14964        -0.58883         0.76065
C        -10.00286        -2.81659         0.29828
C         -8.92487        -3.64191        -0.38695
C         -7.60424        -2.86961        -0.46668
C         -6.34884        -3.64133        -0.19136
C         -5.06107        -2.90377        -0.08131
C         -3.81510        -3.61291        -0.50862
C         -2.56642        -2.96999         0.05736
C         -1.27462        -3.61318        -0.41429
C          0.01444        -2.89221        -0.30932
C          1.17870        -3.61745        -0.32537
C          2.40410        -2.95082        -0.88241
C          3.72195        -3.69386        -0.83407
C          5.03294        -2.93538        -0.84382
C          6.13483        -3.54263         0.03021
C          7.33872        -2.66868         0.48188
C          8.64729        -3.49663         0.60606
C          9.81083        -2.80408         0.72759
C         -8.72553        -5.04564         0.18211
C         -7.58755        -5.76311         0.02732
C         -6.39569        -5.09547        -0.57688
C         -5.12843        -5.83417        -0.87395
C         -3.81649        -5.07899        -0.79464
C         -2.62946        -5.81926        -0.16196
C         -1.28655        -5.11440        -0.40474
C         -0.01559        -5.77255        -0.04194
C          1.15869        -5.05230        -0.04239
C          2.44919        -5.69668         0.31683
C          3.72591        -5.03946        -0.12430
C          5.00322        -5.86953        -0.36834
C          6.17434        -5.03618         0.18472
C          7.46459        -5.70756         0.50934
C          8.58368        -4.95190         0.68674
C         -7.40120        -7.14832         0.65287
C         -6.21491        -7.96189         0.11246
C         -5.10791        -7.33513        -0.68728
C         -3.78079        -8.06250        -0.76188
C         -2.52614        -7.29080        -0.54124
C         -1.32733        -7.99206         0.03606
C         -0.08394        -7.21002         0.31642
C          1.19094        -7.94996         0.58091
C          2.45695        -7.16080         0.68368
C          3.77481        -7.88608         0.77233
C          5.03583        -7.23085         0.32145
C          6.33488        -8.01338         0.12356
C          7.48266        -7.20804         0.81775
C         -5.86147        -9.22073         0.83088
C         -4.75382        -9.93480         0.56569
C         -3.78654        -9.57920        -0.55294
C         -2.39342       -10.16830        -0.32847
C         -1.24720        -9.47006        -0.11235
C          0.08336       -10.08484        -0.01877
C          1.22658        -9.40808         0.28816
C          2.61328       -10.03408         0.14006
C          3.68086        -9.38487         1.05141
C          5.04563       -10.03990         0.94834
C          6.20070        -9.42121         0.66808
O          7.08354        -2.18013         1.74260
O         -6.16520         4.57425         2.06748
O          3.55245         5.33887         1.15576
O         -5.79241         7.53848        -1.17433
O         -6.19062        -8.04883        -1.34788
O          7.49958         2.67683        -1.22067
O         -2.07085         3.36279        -2.34688
O          1.69142        -7.49053         1.88699
O          3.64832        -0.80405        -2.97707
H          4.40770        -0.29256        -3.33946
O         -1.27449        -4.38480        -1.65651
O          4.93313         7.91793        -0.91106
O          6.69456        -8.17846        -1.26069
H          6.20100        -7.52128        -1.80783
O         -7.46427        -2.02433        -1.66191
O          2.77446         5.72509        -2.44657
H          2.52181         6.54800        -2.92649
O         -4.00498         9.53420        -1.80453
H         -4.25934        10.43655        -2.08893
O          2.06533        -2.38923        -2.18820
O          4.75684         1.33043        -2.19202
O          0.54501         3.37657         0.51354
O          0.06837         6.81284        -2.40215
O         -6.22030         1.26416         1.65227
H         -5.73812         2.11811         1.75057
O          9.35778        -0.97229         2.20431
H          8.45454        -1.38511         2.32544
O          1.01846         5.73326         0.76664
H          1.66508         5.27363         1.35086
O         -1.05316        -7.52233         1.40294
O          8.05281        -2.24497        -1.70221
H          8.39541        -1.57435        -2.33556
O          5.64405        -4.17729         1.24207
O         -6.01986        -5.40106        -1.94664
O         -2.92460        -7.65638        -1.88798
O          4.93112         3.72750        -1.69084
O         -4.08651         2.98713         0.91757
O         -0.73603         1.30436         0.60606
O         -8.09370         1.05506        -1.55029
O          0.07340        10.90984        -1.82606
H          0.45985        10.21747        -2.40282
O          3.26337        -4.90598         1.24053
O          4.56345        -3.68210        -2.01964
O          2.20776         8.22625        -1.95598
O         -3.84381         5.47961         1.30524
O          5.85758         5.05833         2.44123
O         -2.83307         7.75099         1.09934
O          9.29326        -0.00458        -1.32540
O          5.10852        -6.15459        -1.77385
H          5.09639        -5.29899        -2.27717
O         -9.93696         5.76553         0.69040
H        -10.01764         5.80585        -0.28458
O         -0.07356        -1.70064        -2.26017
O          3.22850        -9.57928         2.40370
H          3.61016        -8.86199         2.95376
O          3.03231        -9.80816        -1.21322
H          2.47027       -10.33831        -1.81428
O          2.31128         2.40025        -2.37820
O         -6.55279        -1.13066         1.67683
H         -6.00399        -0.55092         2.25236
O         -3.68587        -4.10601        -1.86351
O         -2.98332        -5.79225         1.23791
H         -2.26880        -6.25752         1.74367
O          6.00753        -1.03861        -2.24795
O         -9.45972        -3.78073        -1.72901
H         -9.03620        -3.08349        -2.28423
O         -4.91222         0.91213        -1.79498
O          5.59380         2.73786         1.82417
H          5.58335         3.43122         2.55271
O         -2.64785        -3.19778         1.48057
H         -2.11004        -2.50656         1.93053
O         -5.72117        -3.47550         1.10880
O          7.39441        -7.36222         2.23516
H          6.49832        -7.07085         2.51874
O         -4.29015       -10.18960        -1.76317
H         -4.04166        -9.61038        -2.51488
O         -1.70515        -0.95096         0.95247
O         -7.08353         3.74287        -1.30196
O         -8.58967        -7.92447         0.50665
H         -8.65936        -8.18716        -0.43523
O         -2.28933         5.75414        -2.07668
O          4.66209        -7.19491         1.72982
O          9.24756         2.05971         2.47027
H          9.05299         2.72791         3.15824
O        -10.70270         1.79895        -1.51175
H         -9.92618         1.93857        -2.09985
O          3.21258         8.90045         2.11809
H          4.02394         8.49447         2.53294
O          5.59618         7.68266         2.68064
H          5.62280         6.69129         2.85105
O         10.46745         2.39717        -0.91874
H         10.42984         1.78649        -1.68709
O         -2.45187         1.00678        -2.55207
H         -3.29376         1.22094        -3.01203
O          6.00509         0.27667         1.09683
H          5.93771         1.07944         1.67767
H         12.06735        -1.16854         0.94736
H         12.20385         1.23285         0.60656
H         10.61990         3.33801         1.51907
H          9.41939         5.48387         1.41711
H          8.22641         7.67050         1.03709
H          6.98841         9.88359         1.10455
H          4.92298        11.15240         0.68603
H          2.27744        11.18786         0.73546
H         -0.09036        11.27667         0.20097
H         -2.49562        11.30168         0.08517
H         -5.06439        11.21987         0.50196
H         -7.10479         9.93354         0.83373
H         -8.47975         7.70586         0.59389
H         -8.72926         4.95050         2.13783
H        -10.88948         3.39823         0.87713
H        -12.15120         1.24633         0.84411
H        -12.01301        -1.15781         1.16246
H        -10.93405        -3.33789         0.57261
H         -9.59373        -5.51906         0.66743
H         -7.24380        -6.99825         1.75634
H         -6.54633        -9.54942         1.62762
H         -4.56065       -10.85897         1.13094
H         -2.33563       -11.26373        -0.43117
H          0.14436       -11.16320        -0.23929
H          2.55753       -11.13783         0.34182
H          5.07559       -11.09451         1.26689
H          7.13507       -10.00337         0.70112
H          8.46584        -7.63670         0.49846
H          9.52411        -5.45896         0.95921
H         10.76753        -3.34804         0.79276
