         276
 CSIRO Nanostructure Databank - Neutral Graphene Oxide Data Set
C        -11.06463         0.49135        -0.75662
C        -10.02945         1.41351        -0.22306
C         -8.74346         0.77761         0.19389
C         -7.48434         1.55967        -0.01734
C         -6.17356         0.90221         0.21539
C         -4.95420         1.78825         0.46996
C         -3.69179         0.98053         0.14322
C         -2.54466         1.53880        -0.64260
C         -1.19635         0.82574        -0.61889
C          0.00304         1.50607        -1.23159
C          1.35010         0.80847        -1.24433
C          2.63807         1.48506        -1.60987
C          3.99763         0.72782        -1.76058
C          5.17759         1.46753        -1.12464
C          6.44070         0.67695        -0.82067
C          7.18638         1.09978         0.42792
C          9.32005         0.62149        -0.49826
C          9.98761         1.26127         0.67851
C         10.94620         0.43334         1.39953
C         -9.99005         2.86687        -0.54460
C         -8.89990         3.63886        -0.32659
C         -7.54414         3.09623         0.09742
C         -6.39472         3.65823        -0.82101
C         -5.02899         3.15613        -0.26770
C         -3.80817         3.78232        -0.86368
C         -2.61764         2.93224        -1.34327
C         -1.27543         3.68517        -1.22952
C         -0.04016         2.95277        -1.82377
C          1.30621         3.73875        -1.60656
C          2.70943         3.00226        -1.70937
C          3.80030         3.66102        -0.82297
C          5.07760         2.85572        -0.61210
C          5.85574         3.24238         0.64755
C          7.20890         2.53053         0.97390
C          8.50369         3.32467         0.77803
C          9.73433         2.56499         1.03530
C         -9.00947         5.15195        -0.34660
C         -7.67643         5.88710        -0.40091
C         -6.47917         5.18030        -0.94121
C         -5.21987         5.94181        -1.24321
C         -3.90794         5.19145        -1.42389
C         -2.61224         5.93816        -1.31260
C         -1.32719         5.17113        -1.05300
C         -0.08009         6.02449        -1.25794
C          1.21760         5.17001        -1.09758
C          2.25449         5.61301        -0.09398
C          3.61756         4.97855        -0.11619
C          4.61188         5.40322         1.05794
C          5.96114         4.80497         0.57152
C          7.23814         5.46968         1.04275
C          8.46227         4.68461         0.95537
C         -7.64369         7.21502        -0.14060
C         -6.43485         8.05004        -0.31750
C         -5.19386         7.40682        -0.86403
C         -3.87980         7.95830        -0.39511
C         -2.62989         7.42940        -1.03422
C         -1.37088         8.14407        -0.68031
C         -0.19633         7.26222        -0.36584
C          0.90403         7.78159         0.49877
C          2.15038         6.93201         0.60009
C          3.41221         7.65797         0.96809
C          4.67322         6.92005         1.26157
C          6.00592         7.68379         1.39065
C          7.24112         6.82760         1.19105
C         -6.30538         9.31117         0.46349
C         -5.12143         9.89913         0.71273
C         -3.83232         9.22639         0.40453
C         -2.55258         9.98630         0.47955
C         -1.39188         9.45267         0.04014
C         -0.03854        10.11314         0.11349
C          0.94440         9.24727         1.00951
C          2.33296         9.81507         1.04086
C          3.41720         9.06368         0.34460
C          4.81502         9.64481         0.29285
C          5.94405         8.98135         0.59475
C        -10.98793        -0.84903        -0.65119
C         -9.88165        -1.57265         0.09131
C         -8.61508        -0.71349         0.09394
C         -7.34948        -1.35464         0.55501
C         -6.15169        -0.46728         0.84913
C         -4.80938        -1.06415         1.15219
C         -3.52376        -0.29488         0.94886
C         -2.19536        -1.00650         0.98734
C         -0.92082        -0.21766         0.50432
C          0.33407        -1.12013         0.22056
C          1.45960        -0.55202        -0.60776
C          2.58317        -1.40242        -1.16432
C          3.92348        -0.69090        -1.20027
C          5.20976        -1.46228        -1.07348
C          6.55717        -0.76922        -1.20664
C          7.83535        -1.56932        -0.95896
C          9.11616        -0.89888        -0.45524
C         10.04421        -1.68812         0.41777
C         10.94932        -0.92027         1.31903
C         -9.49858        -2.92325        -0.48544
C         -8.29855        -3.53314        -0.14188
C         -7.38513        -2.84770         0.86071
C         -5.98332        -3.37179         1.08315
C         -4.75211        -2.55424         1.38068
C         -3.43238        -3.26609         1.59398
C         -2.12371        -2.50565         1.32484
C         -0.85768        -3.30178         1.14904
C          0.37138        -2.63071         0.54079
C          1.50964        -3.46253        -0.00679
C          2.57558        -2.86008        -0.88760
C          3.86236        -3.64690        -0.85628
C          5.18130        -2.96633        -0.96112
C          6.43477        -3.75552        -1.22632
C          7.73024        -3.06770        -0.85107
C          8.70367        -3.84291        -0.06711
C          9.74749        -3.13972         0.78527
C         -8.02125        -4.88589        -0.44095
C         -6.98442        -5.59311         0.22987
C         -6.17873        -4.84640         1.27916
C         -4.88513        -5.54279         1.74849
C         -3.52724        -4.76867         1.79016
C         -2.21748        -5.60323         1.70785
C         -0.91485        -4.83040         1.18694
C          0.20801        -5.60697         0.53259
C          1.58252        -4.99965         0.10548
C          2.40663        -5.72855        -0.98913
C          3.74722        -5.09192        -1.24491
C          4.99064        -5.92297        -1.33550
C          6.35232        -5.26085        -1.18289
C          7.44731        -5.96215        -0.48302
C          8.51325        -5.22620         0.06487
C         -6.97441        -6.97286         0.20930
C         -5.79648        -7.76360         0.67369
C         -4.83417        -7.03841         1.62206
C         -3.51173        -7.78142         1.65211
C         -2.39027        -6.97993         1.05662
C         -1.29755        -7.70943         0.35781
C         -0.06628        -6.96249        -0.13969
C          1.30107        -7.65568         0.02667
C          2.33321        -7.23649        -1.00062
C          3.55122        -8.10045        -1.22398
C          4.91540        -7.42195        -1.21472
C          6.11230        -8.16412        -0.68464
C          7.35441        -7.44443        -0.17099
C         -6.03072        -9.16873         1.18238
C         -4.94228        -9.89853         1.46907
C         -3.58672        -9.27873         1.36982
C         -2.55786        -9.87289         0.55652
C         -1.18885        -9.25870         0.48397
C         -0.35885        -9.81644        -0.66734
C          0.95762        -9.97365        -0.63762
C          2.22375       -10.34495        -0.54154
C          3.47565        -9.58093        -0.88580
C          4.71412       -10.19094        -0.33392
C          5.88018        -9.53659        -0.17190
O         -2.73034        -0.28002         2.14755
O          6.14331         5.17596        -0.77465
O          4.54680        -0.83525         0.09880
O          1.49564        -0.47332         0.83525
O         -5.62723        -2.88756         2.44898
O          5.88539        -8.04245        -2.11505
O         -3.16962        -8.67506         2.71586
O          7.22593         2.36952         2.42064
O          6.90002         0.26685        -2.15526
O          3.47374        -9.10246        -2.27043
O         -0.21725         7.03976         1.07511
O          1.77662         0.89411        -2.63760
O          9.08211         1.27924        -1.49577
O         -3.74493         7.89883         1.06496
O         -6.71583         1.00457        -1.11832
O          0.14766        -5.47018         1.96205
O          4.18160         4.96115        -1.43305
O         -5.64820        -0.44492         2.19202
O         -1.92968         8.24109        -2.02711
O          2.20220        -2.34548        -2.20093
O          1.84040         5.69333         1.30292
O         -3.42020        -3.86793         2.91973
O          1.65697        -8.12050         1.09509
O          3.77957         7.40703         2.34230
O         -7.24079         3.45686         1.40609
O          1.59509         4.89038        -2.46416
O         -3.17646         5.54603        -2.61410
O         -1.16013         4.28130         0.09241
O         -4.15716         4.01902         0.53363
O         -1.18937        -2.70480         2.43093
O          1.86886        -6.41817        -2.11536
O          6.63903        -4.51979        -2.43203
O          4.64472        -3.40582         0.34536
O         10.32428        -1.52200        -1.00393
O          5.68362         2.62277        -1.89384
O         -7.24101        -4.71509         2.36955
O         -6.16738         5.63878        -2.30879
O         -2.45151        -7.15189        -0.38570
O         -5.19843        -6.43202         2.86988
O         -9.66831         1.19557         1.21030
O         -3.54437         0.65244        -1.26293
O         -7.65893        -1.19951        -0.88134
O         -5.98829         8.25601        -1.72496
O         -7.95309        -3.36547         2.15199
O          1.55065        -2.90780         1.34297
O         -0.83497         0.53035        -1.98302
O          8.19462        -2.39513        -2.09490
O          4.30374        -5.42890        -2.53222
O          6.15405         8.12530         2.76988
H          5.24831         8.27574         3.12818
O          2.48399        -5.25179         1.20536
H          2.11369        -4.80620         2.00359
O         -0.54936         0.65166         1.57711
H         -0.49711         0.13803         2.41133
O        -10.34222        -1.79745         1.44372
H         -9.68396        -2.35159         1.92219
O         -0.52591        -9.53019         1.73164
H         -1.11683        -9.24054         2.46396
O         -2.91312         2.70619        -2.72082
H         -2.14943         2.24705        -3.14079
O         -4.98972        -7.89737        -0.55109
H         -5.54707        -8.32565        -1.23481
O         -0.10167         6.57078        -2.57723
H          0.10511         5.85908        -3.22340
O          0.53447        10.17884        -1.19970
H         -0.15930        10.01343        -1.87326
O         -9.81068         5.58797        -1.45430
H         -9.28766         5.47840        -2.27526
O         -0.32616        -6.68459        -1.52191
H         -1.30090        -6.68733        -1.65952
O          3.00045         8.81810        -1.03025
H          2.31786         9.48827        -1.28457
O         -0.24915         2.83042        -3.23223
H          0.43135         2.20292        -3.57452
O          4.24829         0.59601        -3.15603
H          4.27115         1.50290        -3.54045
O          7.47789         0.19637         1.21643
H          7.45452         1.42160         2.59382
O         -1.94075        -5.95956         3.06487
H         -2.03764        -5.14960         3.61611
O          7.38896        -7.65298         1.24853
H          8.25021        -7.34658         1.59694
O         -4.93092         2.07867         1.86557
H         -5.71797         2.66616         2.04499
O          4.93966         2.74574         1.63064
H          5.40567         2.74273         2.50139
O         -6.53923         3.14097        -2.14220
H         -6.29442         3.85829        -2.77572
O          9.28677        -3.13800         2.14687
H          9.03083        -4.04845         2.39968
O          0.42013         9.27890         2.34292
H         -0.20070         8.52004         2.43673
O          3.17136         3.17459        -3.06158
H          3.42568         4.11828        -3.17932
O          4.18525         4.86219         2.29020
H          3.57092         5.51463         2.70511
H         11.63146        -1.49697         1.96134
H         11.62162         0.93508         2.11027
H         10.43151         3.03353         1.75413
H          9.41220         5.23759         1.03407
H          8.19378         7.33616         1.40919
H          6.90802         9.48859         0.43104
H          4.89622        10.63215        -0.18907
H          2.57834        10.47151         1.88960
H         -0.11413        11.14093         0.55638
H         -2.56520        10.97885         0.95643
H         -5.08034        10.86671         1.23512
H         -7.23808         9.80234         0.78067
H         -8.55290         7.71284         0.23198
H         -9.55216         5.47068         0.58239
H        -10.93465         3.34966        -0.84503
H        -11.91219         0.94284        -1.29574
H        -11.79234        -1.46923        -1.07619
H        -10.22844        -3.48312        -1.09111
H         -8.69649        -5.44342        -1.10666
H         -7.70364        -7.49677        -0.42933
H         -7.04809        -9.57396         1.27970
H         -5.01816       -10.93799         1.82145
H         -2.79766       -10.76970        -0.03200
H         -0.89993        -9.99653        -1.61402
H          2.40941       -11.38513        -0.21143
H          4.61932       -11.20958         0.07397
H          6.71738       -10.03355         0.33985
H          8.25792        -7.95151        -0.62567
H          9.26088        -5.78303         0.65690
H         10.71424        -3.72363         0.73075
