         410
 CSIRO Nanostructure Databank - Neutral Graphene Oxide Data Set
C         27.86471        27.46100        -0.98640
C         27.87768        28.86041        -1.04764
C         26.64765        29.61821        -1.06502
C         27.89408        31.76909        -1.36102
C         26.63593        30.96865        -1.14160
C         27.89369        33.14632        -0.70686
C         26.70243        33.85712        -0.55259
C         27.88535        35.88590         0.12335
C         26.69120        35.18773        -0.12480
C         27.89682        37.29843         0.46047
C         26.70013        38.01535         0.67833
C         27.92364        40.10144         1.03362
C         26.71338        39.36923         0.96370
C         27.93343        41.49237         1.40282
C         26.76325        42.22367         1.66360
C         27.94622        44.36338         1.91645
C         26.75951        43.60226         1.89657
C         27.94283        45.76680         1.87876
C         30.30458        27.37078        -0.84002
C         29.04750        26.72751        -0.89043
C         30.35576        28.79581        -0.91111
C         29.13110        29.56877        -1.02726
C         30.39654        31.70644        -0.91885
C         29.13774        30.96718        -1.06400
C         30.36763        33.10697        -0.44141
C         29.11964        33.80438        -0.39421
C         30.36170        35.87162         0.15433
C         29.11926        35.18056        -0.00728
C         30.36647        37.29095         0.34895
C         29.13637        38.00271         0.52772
C         30.39621        40.12604         0.69077
C         29.15401        39.41070         0.77998
C         30.44867        41.54353         1.00637
C         29.23596        42.15295         1.60891
C         30.49005        44.44999         1.74645
C         29.23748        43.64985         1.94203
C         30.37326        45.90706         1.58662
C         29.12927        46.50993         1.70840
C         32.76136        24.56085        -0.26377
C         31.56732        25.23782        -0.47451
C         32.79564        27.31811        -0.77244
C         31.54569        26.63159        -0.70362
C         32.82495        28.75290        -0.76484
C         31.60454        29.45013        -0.81108
C         32.79375        31.46988         0.06524
C         31.66505        30.92610        -0.78107
C         32.81142        32.98654         0.14211
C         31.55969        33.74646        -0.09758
C         32.84630        35.87140         0.08242
C         31.58930        35.16164         0.09083
C         32.83430        37.29399         0.10037
C         31.59630        37.99830         0.29608
C         32.79467        40.14678         0.00270
C         31.57658        39.42180         0.37072
C         32.77980        41.69029         0.16729
C         31.59977        42.28880         0.81732
C         32.85736        44.48007         0.66939
C         31.72290        43.71131         1.21021
C         32.76497        45.94549         0.56808
C         31.54819        46.68078         1.10424
C         32.93516        48.74510         1.32159
C         31.76123        48.07772         1.52850
C         35.30870        23.02492        -0.05858
C         35.30221        24.52873        -0.00277
C         34.00540        25.20843        -0.40905
C         35.25782        27.26896        -1.11005
C         34.01128        26.57516        -0.73220
C         35.32184        28.78809        -1.05042
C         34.07763        29.49440        -0.67796
C         35.35416        31.58647        -0.29796
C         34.11158        30.83699        -0.35203
C         35.37727        32.94930        -0.12452
C         34.12220        33.71659         0.10091
C         35.29105        35.89238        -0.25353
C         34.08365        35.18445        -0.08291
C         35.29128        37.29322        -0.20446
C         34.07111        38.00724        -0.02772
C         35.28059        40.16081        -0.29265
C         34.07168        39.43363        -0.06229
C         35.30187        41.61267         0.05936
C         34.06483        42.38682         0.26201
C         35.32547        44.55630         0.36584
C         34.05845        43.78396         0.42850
C         35.30678        46.01702         0.06223
C         34.00991        46.75044         0.29282
C         35.32518        48.84858         0.56708
C         34.09194        48.16068         0.69911
C         35.39665        50.26768         0.73575
C         37.77013        23.02527         0.05767
C         36.47876        22.35774         0.04882
C         37.83103        24.40033        -0.36115
C         36.54291        25.06731        -0.70460
C         37.80360        27.27531        -1.08647
C         36.54771        26.51954        -1.09437
C         37.83181        28.68784        -1.02676
C         36.62757        29.42619        -0.85902
C         37.80141        31.62873        -0.89257
C         36.67134        30.82237        -0.28596
C         37.87899        33.04857        -0.57760
C         36.66649        33.74742         0.00886
C         37.81206        35.91386        -0.64972
C         36.52252        35.11535        -0.68006
C         37.77620        37.28493        -0.70775
C         36.59766        38.04492        -0.14495
C         37.69060        40.23976        -0.95183
C         36.48048        39.49404        -0.53986
C         37.74904        41.72092        -0.73122
C         36.60636        42.34840         0.00349
C         37.75724        44.62168        -0.41779
C         36.61491        43.83943         0.13699
C         37.80392        46.05573        -0.07417
C         36.59151        46.74558         0.15860
C         37.81176        48.86773         0.24006
C         36.56939        48.15210         0.30192
C         37.82414        50.28408         0.39505
C         36.58177        50.94969         0.63698
C         40.13572        20.34636         1.25441
C         38.98292        20.97581         0.79941
C         40.24267        23.02223         0.16004
C         38.95729        22.31916         0.33796
C         40.27267        24.48137        -0.13133
C         39.03052        25.08653        -0.54645
C         40.35115        27.22880        -1.10018
C         39.04325        26.47683        -1.08473
C         40.31907        28.71075        -1.04251
C         39.12666        29.39169        -1.06123
C         40.33734        31.65685        -1.11701
C         39.10287        30.87407        -1.22623
C         40.31735        33.04306        -0.97046
C         39.05866        33.75604        -0.79894
C         40.29003        35.90693        -0.79493
C         39.06601        35.20137        -0.76243
C         40.30255        37.33543        -0.86171
C         39.01397        38.01643        -1.04384
C         40.27190        40.24859        -0.92482
C         39.00224        39.53025        -1.15024
C         40.25152        41.69433        -0.77267
C         39.05798        42.40422        -0.66824
C         40.30640        44.60224        -0.50312
C         39.05078        43.87306        -0.69773
C         40.28397        46.01651        -0.30105
C         39.03985        46.74071        -0.14394
C         40.27372        48.87999        -0.02939
C         39.04356        48.16203         0.02394
C         40.28465        50.29866         0.11863
C         39.06195        51.00643         0.32161
C         40.29627        53.11039         0.42873
C         39.10672        52.42753         0.46367
C         42.55789        20.45766         1.83345
C         41.38213        21.01047         1.30341
C         42.62780        23.20064         1.09843
C         41.48043        22.34295         0.67808
C         42.64357        24.63373         0.65351
C         41.47475        25.17171        -0.08483
C         42.87133        27.30451        -0.44472
C         41.61125        26.51586        -0.68531
C         42.85470        28.77342        -0.60430
C         41.63216        29.41627        -1.12643
C         42.84953        31.65730        -0.80224
C         41.62292        30.94141        -1.17186
C         42.81573        33.09009        -0.80552
C         41.56038        33.78571        -0.87897
C         42.76754        35.94509        -0.78050
C         41.54509        35.19822        -0.80647
C         42.75648        37.37570        -0.80637
C         41.49754        38.07511        -0.87588
C         42.74337        40.22810        -0.88198
C         41.48467        39.52687        -0.89497
C         42.72342        41.69095        -1.05195
C         41.48398        42.43973        -0.78784
C         42.78069        44.51329        -0.29776
C         41.49952        43.83198        -0.56955
C         42.77755        46.04256        -0.13356
C         41.50033        46.75790        -0.24400
C         42.76468        48.87962        -0.21226
C         41.51112        48.16711        -0.17569
C         42.77050        50.31311        -0.08429
C         41.53147        51.00762         0.09131
C         42.76177        53.12810         0.25385
C         41.53182        52.42096         0.25520
C         43.77888        21.15028         1.81450
C         45.09088        23.26206         1.47658
C         43.88099        22.50691         1.45279
C         45.11970        24.66862         1.14176
C         43.94715        25.34613         0.66539
C         45.20541        27.44750         0.43178
C         44.00807        26.68297         0.27419
C         45.22613        28.83852         0.09533
C         44.01475        29.50289        -0.37146
C         45.26236        31.66659        -0.38633
C         44.02800        30.94786        -0.52909
C         45.27204        33.08789        -0.58989
C         44.02916        33.80971        -0.73133
C         45.22825        35.97796        -0.74739
C         44.01562        35.24803        -0.76444
C         45.22287        37.39271        -0.69650
C         43.97786        38.10231        -0.76012
C         45.22832        40.27155        -0.67454
C         43.97186        39.54379        -0.80816
C         45.24861        41.66158        -0.63132
C         44.06099        42.44625        -0.96534
C         45.24733        44.58299        -0.44695
C         44.04890        43.86935        -0.59525
C         45.25455        46.02863        -0.42301
C         44.03417        46.76165        -0.37849
C         45.22317        48.93847        -0.61506
C         43.97916        48.17606        -0.41869
C         45.25434        50.36402        -0.26124
C         43.99538        51.04730        -0.07262
C         43.95572        52.45718         0.10379
C         47.50809        23.28986         1.80710
C         46.31732        22.61419         1.79872
C         47.56641        24.69525         1.55790
C         46.34478        25.39228         1.22220
C         47.57355        27.56457         1.09760
C         46.37650        26.79847         0.92584
C         47.60424        28.92085         0.73130
C         46.43059        29.56951         0.22967
C         47.70776        31.69711        -0.13123
C         46.46699        30.98234        -0.09655
C         47.72702        33.09557        -0.45088
C         46.49438        33.77710        -0.63007
C         47.72180        35.91848        -0.39382
C         46.51839        35.23692        -0.99793
C         47.71166        37.41414        -0.32372
C         46.45298        38.13304        -0.58104
C         47.73636        40.21408        -0.41175
C         46.47526        39.53124        -0.53083
C         47.76480        41.65439        -0.13779
C         46.43966        42.41238        -0.20610
C         47.72125        44.54165        -0.35293
C         46.48986        43.87028        -0.38979
C         47.72872        45.98732        -0.37319
C         46.51764        46.69243        -0.44134
C         47.76847        48.88123        -0.19462
C         46.55698        48.15803        -0.59455
C         47.70916        50.26900        -0.09392
C         46.49498        50.98612        -0.13472
C         50.04768        24.73162         1.87683
C         48.79156        25.38575         1.62015
C         50.13133        27.55810         1.45546
C         48.78882        26.85784         1.55914
C         50.16678        29.00982         1.09317
C         48.85361        29.71453         0.81844
C         50.17216        31.69984         0.06179
C         48.92451        31.04000         0.17645
C         50.19692        33.08247        -0.31476
C         48.98105        33.78546        -0.51254
C         50.19477        35.94862        -0.58676
C         49.01396        35.22917        -0.56371
C         50.20290        37.39044        -0.50665
C         48.99692        38.11303        -0.44375
C         50.22320        40.26808        -0.49351
C         48.97497        39.53800        -0.47502
C         50.23414        41.68300        -0.52349
C         49.00305        42.42030        -0.36711
C         50.20446        44.58214        -0.76596
C         48.96197        43.80906        -0.39962
C         50.20628        45.99355        -0.21881
C         48.97911        46.70453        -0.21233
C         50.18946        48.73733         0.39205
C         48.97497        48.11348         0.01925
C         51.25487        25.33182         1.67453
C         52.60145        27.39691         0.72679
C         51.31666        26.70500         1.13810
C         52.61497        28.87841         0.61086
C         51.42659        29.61491         0.61120
C         52.65272        31.67079         0.03072
C         51.42190        31.00319         0.26210
C         52.64161        33.07029        -0.29693
C         51.44978        33.76919        -0.43026
C         52.71171        35.97008        -0.46617
C         51.47431        35.21356        -0.90055
C         52.69354        37.38562        -0.40254
C         51.45109        38.11069        -0.48604
C         52.70036        40.24338        -0.43663
C         51.45336        39.52620        -0.46846
C         52.69721        41.65025        -0.55735
C         51.48445        42.39840        -0.59511
C         52.67850        44.55507        -0.35848
C         51.48804        43.82396        -0.53703
C         52.68228        45.92996         0.02107
C         51.41301        46.64948         0.09740
C         51.36787        48.02091         0.45764
C         55.05689        27.38953         0.81091
C         53.89359        26.70579         0.87636
C         55.08756        28.81758         0.56057
C         53.86454        29.54726         0.43323
C         55.15687        31.59504         0.03237
C         53.89244        30.94923         0.16662
C         55.21666        33.04301        -0.29817
C         53.92288        33.79251        -0.49625
C         55.14154        35.95020        -0.10613
C         53.92252        35.26759        -0.34130
C         55.14863        37.37637        -0.08921
C         53.92739        38.09941        -0.25491
C         55.18407        40.23077        -0.21258
C         53.94153        39.52755        -0.31092
C         55.23026        41.64890        -0.37135
C         53.98152        42.34449        -0.69666
C         55.20682        44.54407        -0.13378
C         53.97090        43.89234        -0.57221
C         55.13054        45.88611         0.28063
C         53.91095        46.56076         0.31593
C         56.30674        29.48613         0.43426
C         56.33603        30.86070         0.17173
C         56.38727        33.83639         0.11246
C         56.34595        35.18920         0.15552
C         56.36356        38.11273         0.06477
C         56.37850        39.48054         0.01059
C         56.41301        42.41102        -0.24520
C         56.40593        43.79820        -0.12768
O         36.45941        25.40785        -2.10290
O         38.14093        44.35743        -1.79054
O         29.37769        42.65011         2.98737
O         47.01720        41.99424         1.08160
O         45.94647        48.61772        -1.84574
O         42.63540        26.59234        -1.73710
O         49.50691        29.79298         2.13834
O         32.55508        41.06335        -1.13334
O         49.52427        27.36811         2.75151
O         35.15077        28.06668        -2.32736
O         31.69447        46.41145        -0.34485
O         51.69912        26.77424        -0.28095
O         31.38597        31.56560        -2.05079
O         34.50195        46.44489        -1.06980
O         42.80769        45.15142         1.03606
O         41.80334        30.12845        -2.39387
O         38.15494        31.30167        -2.25875
O         37.39822        41.19291        -2.04942
O         36.24564        41.70656         1.25302
O         39.81756        26.65561        -2.33301
O         42.24318        24.25462         2.04954
O         31.55360        44.01631         2.65240
O         41.18692        22.31845        -0.75133
O         43.44310        42.14418        -2.25951
O         54.06769        43.21835        -1.86479
O         47.56116        36.54524         0.90111
O         54.70916        33.33591        -1.65647
O         36.24744        44.28774         1.47727
O         33.46438        33.38343         1.40271
O         38.96528        38.70617        -2.36128
O         51.54589        35.15289        -2.36694
H         52.37815        34.68854        -2.60281
O         50.11989        44.73943        -2.23469
H         50.97000        45.12385        -2.53856
O         36.30567        34.78910        -2.08251
H         36.33769        35.61610        -2.60797
O         37.03016        30.70168         1.14149
H         36.29281        30.24212         1.59746
O         36.89451        33.97419         1.41829
H         36.98101        33.09787         1.85141
O         32.51219        30.98519         1.40997
H         32.94827        31.61961         2.02647
O         35.50533        24.91817         1.40028
H         34.80534        24.48803         1.93529
O         27.94337        32.06398        -2.80854
H         28.21028        31.24116        -3.27104
O         36.94749        38.12393         1.30037
H         36.25002        38.65208         1.74674
O         46.75092        35.30356        -2.44578
H         46.02417        34.82005        -2.89257
H         26.90000        26.93339        -1.00506
H         25.70053        29.06216        -0.98920
H         25.66884        31.49006        -1.17042
H         25.74047        33.38666        -0.79510
H         25.72189        35.69647        -0.03996
H         25.73209        37.49883         0.63916
H         25.75540        39.87354         1.14499
H         25.78794        41.72239         1.59946
H         25.79558        44.12637         1.96991
H         26.98054        46.29762         1.90349
H         28.98525        25.63198        -0.84958
H         29.05054        47.60109         1.59991
H         32.72069        23.49190        -0.01383
H         30.62680        24.67579        -0.40091
H         33.01069        49.77448         1.69997
H         30.95777        48.57224         2.09330
H         34.36622        22.46294        -0.11659
H         34.47375        50.83723         0.90907
H         36.46176        21.25903         0.07786
H         36.56208        52.04125         0.75150
H         40.06855        19.31582         1.63303
H         38.03987        20.41429         0.85144
H         40.31009        54.20386         0.54327
H         38.17786        52.99481         0.60547
H         42.53362        19.43456         2.23616
H         42.75219        54.22034         0.37859
H         44.67144        20.60768         2.15408
H         44.89063        53.03270         0.10444
H         48.42561        22.73700         2.04357
H         46.32072        21.54084         2.02734
H         48.62453        50.84130         0.11022
H         46.54846        52.06827         0.04630
H         50.04590        23.67999         2.19487
H         50.20750        49.81022         0.62510
H         52.18155        24.75793         1.81241
H         52.28530        48.54723         0.75080
H         56.01710        26.86340         0.91571
H         53.89375        25.61539         1.01042
H         56.04978        46.41084         0.57810
H         53.91967        47.61389         0.62531
H         57.24775        28.92619         0.52861
H         57.30925        31.35507         0.05104
H         57.30612        33.31645         0.41800
H         57.25444        35.72461         0.46166
H         57.31421        37.58345         0.20720
H         57.33822        40.00292         0.11488
H         57.37765        41.89740        -0.13424
H         57.35137        44.32062         0.07899
