         295
 CSIRO Nanostructure Databank - Neutral Graphene Oxide Data Set
C         29.55341        30.77241         2.36415
C         28.33190        30.77450         2.65481
C         30.52852        36.12137        -0.46320
C         30.29607        37.31785        -0.71105
C         30.43239        40.42413        -1.78204
C         30.35849        41.66491        -1.84211
C         32.83511        29.33158         1.45802
C         31.67163        29.72101         1.43949
C         32.83501        32.19517         1.52360
C         30.86766        30.78058         1.98473
C         32.83025        33.38330         0.83048
C         31.63486        34.18915         0.60544
C         32.82206        35.84287        -1.02134
C         31.62188        35.22360        -0.29680
C         32.79429        37.39532        -0.68854
C         31.46857        38.08231        -1.38830
C         32.87835        40.22484        -1.65617
C         31.42892        39.57025        -1.07755
C         32.87127        41.73596        -1.89557
C         31.51624        42.51237        -2.11043
C         32.80750        44.51383        -1.61886
C         31.73978        43.92806        -1.82085
C         35.76224        27.90438         1.45185
C         35.42311        29.16082         1.75225
C         34.13921        29.87594         1.82559
C         35.38615        32.14669         1.58648
C         34.08097        31.41000         1.81347
C         35.36001        33.39458         0.78273
C         34.07475        33.73744         0.01948
C         35.41902        35.95631        -0.61782
C         34.13916        35.15787        -0.60554
C         35.40033        37.45068        -0.93804
C         34.08480        38.17361        -1.00227
C         35.34845        40.43948        -0.84772
C         34.00589        39.70922        -0.72432
C         35.40887        41.74929        -1.21725
C         34.19366        42.46339        -1.74322
C         35.39268        44.77270        -1.29500
C         34.17763        44.01007        -1.69969
C         35.43758        46.04951        -0.57391
C         37.86936        26.96845         1.82906
C         36.65350        26.98803         1.17334
C         37.97600        29.26161         2.03024
C         36.67104        29.99801         2.20982
C         37.76586        31.73484         0.53149
C         36.60121        31.26798         1.37216
C         37.82318        33.21632         0.24872
C         36.64811        33.94405         0.27688
C         37.93058        36.01834        -0.44678
C         36.63408        35.45208         0.16976
C         37.93410        37.54749        -0.34713
C         36.65750        38.26114        -0.67000
C         37.84076        40.43500        -0.19130
C         36.50311        39.70344        -0.16346
C         37.84524        41.78788        -0.47666
C         36.76218        42.47559        -1.28715
C         37.89184        44.79239        -0.51442
C         36.71786        44.02655        -1.11754
C         37.81108        46.26760        -0.04550
C         36.39300        46.64532        -0.06967
C         40.06572        24.32857         0.26555
C         39.08723        25.07219         0.58082
C         40.25681        27.32204         0.95455
C         39.10786        26.33766         1.34148
C         40.33646        28.81324         1.54101
C         39.07163        29.66438         1.35294
C         40.32816        31.62959         0.33886
C         39.02285        30.82922         0.37823
C         40.34634        33.11640         0.13119
C         39.09246        33.89349         0.09145
C         40.25900        36.03954         0.55945
C         39.14664        35.32396         0.10723
C         40.22074        37.49140         0.80799
C         38.89537        38.24988         0.61387
C         40.29766        40.35843         0.28697
C         39.03622        39.72948         0.25381
C         40.35414        41.79222        -0.11706
C         39.06287        42.53998        -0.08655
C         40.34732        44.81884         0.07852
C         39.06808        44.02483        -0.01146
C         40.26006        46.16123         0.77697
C         38.91784        46.89014         0.76757
C         39.82124        48.20895         2.52612
C         38.77204        47.69332         2.00150
C         42.58860        24.46804        -0.31261
C         41.20411        24.63604        -0.48811
C         42.58350        27.41852         0.03345
C         41.30547        26.92366        -0.06586
C         42.80893        28.81341         0.51228
C         41.62599        29.53636         1.08171
C         42.80955        31.74109         0.73968
C         41.51671        31.05516         1.10676
C         42.84089        33.10495         0.77476
C         41.64840        33.90791         0.25182
C         42.81618        36.03991         0.91751
C         41.50479        35.29763         0.86223
C         42.85483        37.53634         0.86398
C         41.54454        38.27980         0.92674
C         42.80624        40.36920         0.33190
C         41.53168        39.69749         0.54549
C         42.84572        41.87123         0.54833
C         41.63079        42.56141        -0.03402
C         42.82957        44.71029         0.77784
C         41.63332        44.07134         0.10633
C         42.57375        45.67859         1.90672
C         41.26062        46.41664         1.89238
C         42.39440        48.12458         3.11470
C         41.12701        47.74145         2.63673
C         43.59765        25.20628        -0.35832
C         45.17851        27.32466        -0.11068
C         43.84408        26.61019        -0.05273
C         45.26345        28.80854        -0.43699
C         43.88641        29.58270        -0.28475
C         44.85428        31.89530        -0.51693
C         44.07880        30.97731         0.38415
C         45.17213        33.14682        -0.13822
C         44.14319        33.83448         0.68275
C         45.12168        35.93734        -0.37297
C         44.12429        35.33127         0.62856
C         45.17111        37.46513        -0.38587
C         44.07728        38.22693         0.33988
C         45.25997        40.40062        -0.30030
C         43.98451        39.69486         0.13045
C         45.39067        41.80524         0.28593
C         44.12572        42.61587         0.02779
C         45.21289        44.26157         1.71031
C         44.12643        43.98672         0.69992
C         45.13207        45.74508         2.15520
C         43.83107        46.17370         2.78333
C         43.55108        47.66052         2.93428
C         47.50916        27.16567        -0.81767
C         46.43288        26.66654        -0.48647
C         47.71716        28.56050        -1.20802
C         46.44223        29.34352        -0.94227
C         47.75492        31.54499        -1.12097
C         46.62909        30.76563        -1.25882
C         47.69688        33.10888        -1.13959
C         46.49282        33.77750        -0.40328
C         47.74453        35.98738        -0.77432
C         46.51733        35.27466        -0.26664
C         47.71868        37.46428        -1.02556
C         46.42903        38.20983        -0.75544
C         47.74732        40.46095        -0.24181
C         46.50430        39.53593         0.00729
C         47.82490        41.47625         0.96536
C         46.53394        42.33433         0.80584
C         47.77573        44.34761         1.92608
C         46.57849        43.84149         1.06647
C         47.60754        45.87871         1.86681
C         46.41544        46.22592         2.20942
C         50.36582        28.77995        -1.00325
C         49.02532        29.31065        -1.28502
C         50.35662        31.58057        -1.00354
C         49.06254        30.84340        -1.22818
C         50.28601        33.03827        -0.60967
C         48.98013        33.75736        -0.53610
C         50.32664        35.99967        -0.72986
C         49.02914        35.30716        -0.30957
C         50.31085        37.54259        -0.62713
C         49.03508        38.26036        -1.23066
C         50.34075        40.40195        -0.39457
C         49.03469        39.72597        -0.69481
C         50.42304        41.65823         0.44936
C         49.14451        42.28629         1.01109
C         50.25682        44.48095         0.89062
C         49.10818        43.75288         1.45983
C         51.31870        29.45271        -0.52422
C         52.51957        31.73553         0.02761
C         51.57695        30.82588        -0.46586
C         52.51569        32.99327         0.18771
C         51.60979        33.80638        -0.76394
C         52.68766        36.13098        -0.71291
C         51.50294        35.29637        -0.60916
C         52.71054        37.36828        -0.73435
C         51.65660        38.31278        -1.19680
C         52.60603        40.72383        -0.85202
C         51.65573        39.71157        -0.64497
C         52.64978        41.97187        -0.61939
C         51.45793        42.87354        -0.61532
C         51.22825        44.00143         0.27676
O         37.93542        35.78273        -1.91383
O         38.82044        43.25763         1.20946
O         33.99564        30.65699         3.05420
O         49.92244        31.32161        -2.35224
O         48.33262        28.84281        -2.47180
O         38.28361        45.91663        -1.35264
O         41.47385        45.23648         2.75333
O         36.63842        31.03086        -0.07037
O         37.18712        42.23480        -2.71245
O         45.38296        38.01672        -1.73052
O         34.43406        43.29579        -2.91743
O         36.36331        44.72411        -2.35533
O         32.28428        42.06143        -3.21743
O         43.91195        37.98909         1.78303
O         41.18180        42.05469        -1.30752
O         40.31602        26.42508         2.12332
O         38.07195        28.03869         2.74342
O         45.45951        31.39118        -1.68045
O         31.63608        31.88094         2.23972
O         35.07073        35.11215        -1.74469
O         43.86270        45.10948        -0.18415
O         37.74244        38.16938        -1.64157
O         34.76476        37.77170        -2.21114
O         40.53403        32.13506        -0.99040
O         40.77486        37.89527         2.10973
O         47.60985        36.48156        -2.12540
O         49.47512        42.71234         2.39496
O         42.07634        34.20227        -1.06026
O         42.76588        29.09321         1.93778
O         44.62307        26.93888         1.15147
O         40.03635        47.30651        -0.07320
O         41.02267        25.96161        -1.06202
O         41.20148        44.78121        -1.09255
O         49.55282        33.13144         0.65058
O         42.16426        35.53227         2.12410
O         35.39636        33.44236         2.27156
O         44.60788        34.64093         1.80418
O         46.85691        34.43710         0.85868
O         49.69039        40.58736        -1.69440
O         45.17717        40.50594        -1.73820
H         44.56574        41.24648        -1.96828
O         44.61962        35.53607        -1.66660
H         44.93319        36.19509        -2.32901
O         44.91008        30.76958         1.55214
H         44.38845        30.22442         2.18678
O         31.23993        39.76613         0.30746
H         30.51973        39.15584         0.58657
O         30.46272        33.96287         1.25113
H         30.53441        33.24372         1.91297
O         46.45332        39.02144         1.34269
H         46.42040        39.74168         2.01198
O         36.12947        39.64725         1.24458
H         36.82503        39.12594         1.73453
O         52.06253        33.58275        -2.08683
H         52.81387        34.18673        -2.27043
O         42.74313        42.08454         1.97105
H         43.59627        41.87383         2.41172
O         38.38645        42.99844        -2.93680
H         38.04867        43.82007        -3.37678
O         46.75081        44.47826        -0.20526
H         46.09370        44.13219        -0.84570
O         43.33178        29.71262        -1.59510
H         43.90534        30.31407        -2.12455
O         47.78411        40.84255         2.25043
H         48.20937        41.45928         2.89447
O         31.39969        37.88887        -2.75580
H         31.59935        36.94057        -2.95737
O         47.66807        33.54905        -2.50458
H         46.91599        33.11700        -2.96180
O         34.05402        32.80679        -1.08855
H         34.62320        33.17897        -1.80149
O         36.54152        35.99078         1.50964
H         36.18997        35.30131         2.11801
O         51.30166        41.35288         1.49178
H         51.15743        41.99562         2.22478
O         40.46996        28.69445         2.95728
H         41.32268        28.24369         3.14463
O         44.00067        42.82820        -1.38876
H         43.65683        43.74399        -1.53650
O         50.31281        37.86360         0.77116
H         49.91473        37.10262         1.26931
O         49.15463        38.38951        -2.65856
H         48.76594        37.57766        -3.06474
O         49.03520        35.54630         1.12662
H         49.28439        34.69715         1.56958
O         51.73243        38.38691        -2.60544
H         50.87048        38.73739        -2.94760
O         50.95794        43.08716        -1.86714
H         51.02444        42.27714        -2.41390
O         38.91983        30.18247        -0.90933
H         39.21210        30.83661        -1.58687
O         44.96226        43.42583         2.84710
H         45.67256        43.60041         3.50945
O         32.65350        37.43757         0.73711
H         32.61504        38.39207         1.00782
O         47.46352        41.34961        -1.33609
H         47.39519        40.83195        -2.16656
O         43.73051        45.54920         4.04346
H         42.77369        45.46757         4.26637
O         36.56474        30.35868         3.58004
H         36.80401        29.58166         4.12844
O         41.19847        31.40494         2.48111
H         41.80145        30.90469         3.07242
O         33.61010        39.93632         0.63927
H         34.41555        39.86242         1.21266
O         38.14145        34.37939        -2.17569
H         38.92656        34.38635        -2.77793
O         32.67373        35.63313        -2.43197
H         33.56194        35.77910        -2.83833
O         38.24734        38.18216         1.91981
H         38.95647        38.30029         2.59683
O         33.11917        39.64270        -2.92103
H         32.64337        40.17073        -3.60186
O         47.55769        43.93315         3.27367
H         48.32073        44.22050         3.81899
