         621
 CSIRO Nanostructure Databank - Neutral Graphene Oxide Data Set
C          5.88771        31.65025         0.52840
C          5.80962        32.99352         0.28928
C          8.47145        27.42012         0.44048
C          8.39862        28.80858         0.27381
C          7.19957        29.53171         0.55920
C          8.25268        31.60386        -0.18407
C          7.11029        30.90219         0.33214
C          8.12021        32.96829        -0.53697
C          6.95769        33.75123        -0.15426
C          8.16174        35.96332        -0.08592
C          6.97363        35.14909        -0.06429
C          8.21351        37.34391        -0.13689
C         10.78226        23.06272        -0.13644
C         10.66277        24.48295        -0.42386
C          9.62278        25.29222         0.17199
C         10.79890        27.38705        -0.43344
C          9.61880        26.68189         0.03974
C         10.77398        28.80600        -0.48975
C          9.55565        29.50917        -0.21898
C         10.64451        31.61746        -0.86364
C          9.47458        30.90224        -0.44589
C         10.52109        33.01310        -1.12666
C          9.19244        33.55690        -1.25832
C         10.66762        35.97201        -0.58077
C          9.50307        35.32483         0.16035
C         10.69718        37.36348        -0.08332
C          9.48040        38.06888        -0.01290
C         10.73043        40.21651         0.15235
C          9.51815        39.49027         0.07466
C         10.80368        41.61195         0.03889
C         13.20162        18.78277        -0.00902
C         13.16111        20.20856        -0.22651
C         11.95586        20.94182        -0.31088
C         13.17894        23.08469        -0.76058
C         11.95180        22.36398        -0.41100
C         13.19792        24.43915        -0.96250
C         11.94471        25.22651        -0.94121
C         13.16658        27.40879        -1.12483
C         11.98966        26.70026        -0.78852
C         13.18589        28.83932        -1.11268
C         11.96016        29.52161        -0.84523
C         13.06029        31.64855        -1.44775
C         11.90242        30.93958        -0.99781
C         12.80777        33.00756        -1.77368
C         11.70937        33.76735        -1.36544
C         13.19637        35.88731        -0.74036
C         11.85184        35.26530        -1.15836
C         13.23299        37.21986        -0.01729
C         11.96899        37.98257         0.24850
C         13.28775        40.17059         0.29555
C         11.98835        39.48119         0.40638
C         13.28939        41.57944         0.37913
C         12.02545        42.33353         0.25499
C         13.20399        44.41677         0.97515
C         12.02176        43.71602         0.33983
C         13.28462        45.92625         0.80661
C         15.70872        14.57176         0.55266
C         15.63626        15.98969         0.42619
C         14.43856        16.66748         0.29515
C         15.63891        18.84261         0.35196
C         14.39743        18.09838         0.16900
C         15.54039        20.31126         0.36271
C         14.36120        20.94245        -0.21022
C         15.69343        23.09226        -0.59566
C         14.45608        22.27266        -0.90783
C         15.78215        24.37364        -1.42815
C         14.36654        25.10940        -1.67458
C         15.67418        27.43201        -1.45215
C         14.37486        26.65965        -1.54796
C         15.66945        28.91358        -1.25068
C         14.40614        29.61065        -1.31316
C         15.64949        31.78247        -1.52393
C         14.37694        31.02612        -1.47100
C         15.73990        33.18484        -1.50276
C         14.65870        34.11153        -1.69672
C         15.75060        35.81296        -0.30719
C         14.53752        35.32620        -1.08670
C         15.72675        37.31986        -0.13964
C         14.51942        37.98831         0.02613
C         15.73684        40.12863         0.29815
C         14.49589        39.42566         0.21464
C         15.73683        41.54720         0.49045
C         14.51496        42.25843         0.52141
C         15.72816        44.45599         1.08082
C         14.50852        43.76538         0.44891
C         15.75184        45.86453         0.49238
C         14.47810        46.62243         0.68295
C         15.78768        48.75900         0.54384
C         14.56478        48.04445         0.66324
C         15.81003        50.17162         0.63962
C         18.25727        10.33068         0.62505
C         18.21936        11.70979         0.85104
C         16.86058        12.37265         0.79183
C         18.14013        14.56694         0.89595
C         16.91031        13.87955         0.70387
C         18.07457        16.04245         0.98295
C         16.94100        16.73527         0.26170
C         18.07788        18.99380         0.74049
C         16.85506        18.22150         0.54104
C         18.05029        20.38317         0.63848
C         16.79144        21.13691         0.49518
C         18.01878        23.37263         0.32745
C         16.80384        22.53180        -0.03718
C         18.12792        24.63901        -0.48590
C         16.90152        25.28709        -0.97051
C         18.12288        27.41089        -0.84029
C         16.88331        26.64612        -1.12156
C         18.14374        28.89307        -0.99466
C         16.87107        29.61685        -1.23405
C         18.17496        31.69203        -1.36736
C         16.91568        31.04930        -1.37866
C         18.27370        33.13856        -1.61242
C         17.00202        33.93888        -1.51013
C         18.20548        36.00277        -0.79573
C         17.02755        35.31586        -0.96853
C         18.22439        37.34827        -0.23686
C         16.98051        38.01910        -0.05073
C         18.21460        40.09671         0.40197
C         16.97413        39.41728         0.20999
C         18.18760        41.51732         0.57676
C         16.99855        42.22775         0.62659
C         18.31362        44.44161         0.71710
C         17.03616        43.68956         0.92207
C         18.32677        45.90651         0.49674
C         17.04235        46.61175         0.34299
C         18.26169        48.77878         0.32774
C         17.04674        48.08007         0.39142
C         18.25356        50.22613         0.33129
C         16.99092        50.93461         0.52230
C         17.81208        53.31064         0.41351
C         16.87367        52.34427         0.79934
C         18.09338        54.61294         0.86820
C         20.82781         6.11613        -0.12928
C         20.42073         7.41632        -0.30900
C         19.32383         8.19581         0.18993
C         20.72661        10.26406         0.81579
C         19.44697         9.57238         0.43923
C         20.64770        11.69748         1.31532
C         19.39235        12.45761         1.11872
C         20.58562        14.66339         1.29748
C         19.35989        13.88939         1.15624
C         20.59809        16.03901         1.17637
C         19.34940        16.82204         1.14087
C         20.54670        18.97976         0.95769
C         19.35614        18.29360         0.89824
C         20.56122        20.45050         1.06472
C         19.25935        21.19206         0.86007
C         20.54922        23.23614         0.34747
C         19.33127        22.59925         0.41112
C         20.57345        24.67625        -0.01853
C         19.33804        25.25105        -0.60492
C         20.66944        27.37090        -1.30390
C         19.38060        26.64775        -1.10361
C         20.66803        28.86046        -1.18619
C         19.44449        29.56845        -1.20544
C         20.68037        31.67497        -1.14066
C         19.44164        30.98456        -1.21863
C         20.67661        33.12337        -0.75659
C         19.53947        33.88708        -1.37823
C         20.73822        35.97282        -0.53350
C         19.50625        35.36150        -1.07883
C         20.73056        37.29022        -0.06426
C         19.45486        38.00817         0.05996
C         20.68299        40.01488         0.96297
C         19.43614        39.37028         0.44907
C         20.72035        41.51831         1.12136
C         19.45405        42.24650         0.84425
C         20.82060        44.35881         0.38480
C         19.50599        43.63193         0.22060
C         20.76380        45.80906         0.07532
C         19.50242        46.58099         0.29089
C         20.74886        48.72525         0.26166
C         19.52413        48.04074         0.23763
C         20.76217        50.16108         0.43316
C         19.50829        50.88634         0.34691
C         20.71667        53.06786         0.62280
C         19.63644        52.28500         0.15093
C         20.63895        54.46122         0.73758
C         19.39115        55.21859         0.74502
C         20.68125        57.37068         0.88168
C         19.46578        56.62601         0.84379
C         20.68107        58.77895         0.71653
C         23.48518         3.59668        -0.95711
C         22.25369         4.22880        -0.72634
C         23.37232         6.38290        -0.47252
C         22.15123         5.61490        -0.50380
C         23.42682         7.78621        -0.16148
C         22.26677         8.60082        -0.23945
C         23.28330        10.40343         0.97499
C         22.09129         9.75544         0.50582
C         23.24325        11.77084         1.36637
C         21.92950        12.45544         1.54651
C         23.14634        14.70482         1.45354
C         21.87208        13.95308         1.55146
C         23.13579        16.05628         1.30716
C         21.87125        16.76302         0.97484
C         23.07885        19.00966         1.17896
C         21.85027        18.27798         0.88220
C         23.03667        20.46755         1.26599
C         21.81764        21.19576         0.88039
C         23.10217        23.25494         0.40367
C         21.82324        22.55402         0.59854
C         23.14839        24.60706        -0.10024
C         21.88189        25.36673        -0.26401
C         23.18619        27.37857        -0.87496
C         21.96837        26.55811        -1.22106
C         23.13519        28.84186        -0.84372
C         21.88456        29.56386        -1.11225
C         23.17148        31.72246        -1.17183
C         21.91857        30.98780        -1.11703
C         23.17071        33.16112        -1.15645
C         21.96897        33.85457        -0.94614
C         23.20861        35.91771        -0.53806
C         21.96311        35.25195        -0.70634
C         23.19314        37.22346         0.02311
C         21.98607        37.90342         0.25621
C         23.25163        40.05231         0.87436
C         21.98355        39.26796         0.84381
C         23.29379        41.40943         1.04601
C         22.05702        42.31027         1.22552
C         23.24986        44.43501         0.28100
C         22.01931        43.67893         0.46764
C         23.30650        45.82858         0.28191
C         22.05445        46.58064         0.12224
C         23.21825        48.71951         0.44183
C         22.02999        48.04290         0.32039
C         23.22814        50.18589         0.37746
C         21.94443        50.86912         0.55761
C         23.21291        53.08178         0.67670
C         21.94546        52.28713         1.08212
C         23.18161        54.46676         1.30861
C         21.86801        55.19727         1.16814
C         23.12301        57.37244         1.20643
C         21.91472        56.66512         1.06686
C         23.02181        58.77355         1.25113
C         21.87916        59.50769         0.84183
C         23.19439        61.47134        -0.00222
C         22.02746        60.90085         0.49011
C         24.66624         4.31252        -0.86457
C         25.84564         6.39707        -0.30775
C         24.63525         5.70283        -0.56106
C         25.86121         7.72523         0.16830
C         24.60556         8.41619         0.29856
C         25.75642        10.43639         1.14247
C         24.54929         9.75597         0.79408
C         25.69823        11.79565         1.51648
C         24.44209        12.47503         1.54562
C         25.71080        14.71629         1.76397
C         24.43587        13.96159         1.51606
C         25.64258        16.20820         1.96769
C         24.35295        16.87104         1.58082
C         25.63741        19.00018         1.29129
C         24.36983        18.25672         0.94716
C         25.64367        20.48593         1.21461
C         24.35825        21.26161         1.19435
C         25.59390        23.15058         0.03023
C         24.31230        22.58711         0.59595
C         25.62204        24.65011        -0.04949
C         24.36077        25.28922        -0.29887
C         25.64322        27.39419        -0.70208
C         24.37053        26.71305        -0.59421
C         25.64025        28.78041        -1.21805
C         24.43434        29.60404        -0.93040
C         25.62020        31.71202        -1.56313
C         24.42861        31.04608        -1.26590
C         25.61517        33.18074        -1.72763
C         24.39643        33.90055        -1.27165
C         25.69382        35.98190        -0.83368
C         24.42789        35.25512        -0.92066
C         25.73159        37.16499        -0.15631
C         24.49976        37.79852         0.40941
C         25.73339        40.01162         0.40266
C         24.51511        39.25009         0.83877
C         25.86917        41.43309         0.86240
C         24.61108        41.98180         1.53017
C         25.77355        44.48946         0.18982
C         24.49031        43.77666        -0.14727
C         25.77415        45.97009         0.18555
C         24.54947        46.58168         0.31186
C         25.78290        48.76941         0.68281
C         24.48379        47.99473         0.83641
C         25.78149        50.17293         0.75730
C         24.52849        50.92646         0.58040
C         25.72212        53.04735         1.00678
C         24.50510        52.34485         0.91835
C         25.72645        54.47306         1.09026
C         24.48840        55.21306         1.39050
C         25.73129        57.38428         0.81353
C         24.47989        56.74052         1.34678
C         25.77822        58.69866         0.23793
C         24.83712        59.69851         0.52450
C         24.45521        60.84386        -0.19191
C         27.05214         8.42683         0.45633
C         28.23997        10.47373         1.04137
C         27.03640         9.76803         0.92104
C         28.30906        11.78143         1.66948
C         26.93437        12.48215         1.96139
C         28.28480        14.72930         2.11775
C         26.96313        13.97499         2.15134
C         28.28883        16.22912         1.92317
C         26.94844        16.96520         1.85899
C         28.14589        18.92650         0.83011
C         26.91434        18.25415         1.19087
C         28.13506        20.44414         0.64486
C         26.87787        21.19363         0.84380
C         28.11133        23.28133         0.67624
C         26.85155        22.51943         0.56946
C         28.09155        24.73375         0.34750
C         26.82085        25.34770        -0.11560
C         28.15254        27.35044        -0.85605
C         26.83906        26.71867        -0.54767
C         28.23187        28.78389        -1.33368
C         26.91433        29.48183        -1.56248
C         28.21769        31.69181        -1.82235
C         26.89358        30.97275        -1.77159
C         28.24841        33.20765        -1.94877
C         26.91456        33.95482        -1.90916
C         28.25543        36.03075        -1.09068
C         26.91426        35.50480        -1.64074
C         28.28274        37.23032        -0.46378
C         27.05155        37.81233         0.20649
C         28.14974        40.11856        -0.44560
C         26.96096        39.30473        -0.06757
C         27.88383        41.43460        -0.68843
C         26.98726        42.20913         0.19390
C         28.27798        44.56858        -0.08573
C         27.05436        43.72710         0.21155
C         28.23418        45.94813         0.47932
C         27.03774        46.64244         0.47413
C         28.25878        48.78873         0.79775
C         27.01216        48.07509         0.69823
C         28.24224        50.21424         0.87472
C         26.99995        50.90997         0.86468
C         28.20992        53.06577         0.95075
C         26.97561        52.33654         0.94207
C         28.16707        54.48578         0.90593
C         26.94347        55.19214         0.95498
C         26.89157        56.61216         0.74737
C         29.49454        12.62345         1.51675
C         30.70156        14.74720         1.45525
C         29.52369        13.99982         1.71990
C         30.71849        16.16421         1.29979
C         29.48821        16.89155         1.37824
C         30.64434        18.97059         0.76444
C         29.45945        18.26357         1.02212
C         30.62844        20.39941         0.25202
C         29.39893        21.17549         0.63175
C         30.62551        23.31036         0.60225
C         29.40336        22.55768         0.65463
C         30.62301        24.73989         0.54474
C         29.38364        25.43824         0.18609
C         30.49647        27.61685         0.03359
C         29.36134        26.73628        -0.26043
C         30.65896        28.95696        -0.60296
C         29.46754        29.61175        -1.12891
C         30.74808        31.70270        -1.50999
C         29.46059        30.97010        -1.40162
C         30.78831        33.18943        -1.49456
C         29.56055        33.95210        -1.86323
C         30.78347        36.10486        -1.24569
C         29.50129        35.50581        -1.79567
C         30.80498        37.36682        -0.75033
C         29.55330        38.04343        -0.24936
C         30.72403        40.33602        -0.86935
C         29.44391        39.48884        -0.79337
C         30.80843        41.81749        -0.65688
C         29.73430        42.62086        -0.89476
C         30.85164        44.66784         0.00868
C         29.62126        44.02364        -0.48853
C         30.80251        45.96719         0.49216
C         29.50611        46.59597         0.96093
C         30.73058        48.79831         0.95020
C         29.49094        48.09477         0.83536
C         30.70184        50.21584         0.99564
C         29.48157        50.93945         0.95476
C         29.43881        52.35604         0.96786
C         31.90929        16.88164         1.02935
C         33.10346        19.02289         0.62638
C         31.90308        18.28344         0.81633
C         33.11669        20.44685         0.53195
C         31.88738        21.17582         0.52570
C         33.09973        23.33067         0.57376
C         31.87160        22.58971         0.58879
C         33.10615        24.75591         0.68796
C         31.83595        25.46303         0.68804
C         32.82109        27.85195         0.83158
C         31.67874        26.94735         0.69404
C         33.02703        29.01713         0.14853
C         31.89973        29.59682        -0.57899
C         33.37068        31.68455        -1.10463
C         32.03726        30.93041        -1.20508
C         33.20649        33.17836        -0.94125
C         32.01095        33.85332        -1.25261
C         33.32232        36.07302        -1.21426
C         32.04603        35.34161        -1.43315
C         33.33938        37.51371        -0.92244
C         32.06208        38.14593        -0.58594
C         33.28616        40.41490        -0.83216
C         32.02215        39.63901        -0.59387
C         33.27886        41.80951        -0.33793
C         32.05878        42.49118        -0.26834
C         33.28787        44.55835         0.36870
C         32.05909        43.89911         0.01843
C         33.24830        45.94810         0.67828
C         32.02963        46.66693         0.76352
C         31.96255        48.06959         1.00026
C         34.32106        21.17523         0.43163
C         35.53718        23.27836         0.14127
C         34.33023        22.59113         0.39771
C         35.59087        24.68416         0.21672
C         34.41134        25.39293         0.64336
C         35.72704        27.50290         0.52425
C         34.65548        26.74407         0.97595
C         35.65701        28.99453         0.63025
C         34.32589        29.74433         0.39897
C         35.73490        31.81125        -0.27513
C         34.40832        31.14259        -0.11940
C         35.74482        33.19151        -0.51223
C         34.44570        33.89469        -0.56188
C         35.80715        36.08806        -0.81136
C         34.51561        35.37734        -0.68167
C         35.79008        37.47703        -1.00584
C         34.54545        38.18487        -0.92735
C         35.82670        40.32951        -0.44471
C         34.57706        39.67139        -0.90842
C         35.74197        41.68208        -0.01419
C         34.52701        42.44266        -0.00613
C         34.49763        43.80874         0.36448
C         36.80112        25.39994        -0.03179
C         38.09598        27.53018        -0.21015
C         36.87973        26.79919         0.05081
C         38.15885        28.90455        -0.09394
C         36.95092        29.69393         0.27747
C         38.17463        31.78529        -0.32754
C         36.94510        31.11219        -0.14203
C         38.19463        33.19154        -0.50682
C         36.97010        33.91614        -0.57660
C         38.26600        36.06070        -0.76401
C         37.00615        35.34643        -0.72667
C         38.28597        37.44107        -0.92282
C         37.06019        38.25656        -1.24397
C         37.00214        39.58472        -0.50632
C         39.37467        29.63603        -0.31412
C         40.64812        31.75581        -0.47658
C         39.41168        31.02358        -0.34512
C         40.66962        33.11773        -0.56309
C         39.45329        33.90037        -0.58332
C         39.47739        35.28534        -0.67044
O         25.73558        19.78301         2.52020
O         19.87798        26.90188        -2.46490
O         23.84624        29.35765         0.37519
O         19.81634        34.83106        -2.43039
O         21.25164        39.32352         2.12666
O         19.39291        43.45923        -1.16607
O         23.64171        21.11681         2.44751
O         27.11510        41.66650         1.57064
O         28.75673        44.73368        -1.46531
O         36.50149        29.53518         1.68217
O         15.02768        27.18894        -2.74590
O         21.85353        13.18741         2.81962
O         27.64553        11.79516         2.99215
O         26.11113        33.60945        -3.05301
O         26.83828        36.14069        -2.88221
O         21.17343        25.57687         0.99286
O         24.63635        56.02623         2.60416
O         27.97969        24.27617         1.76135
O         16.21873        23.85336        -2.67646
O         29.01421        33.50817        -3.15080
O         25.89974        39.72223        -1.02301
O         23.97179        50.70465        -0.83516
O         11.94930        38.60465         1.58654
O         21.41704        46.21971        -1.16722
O         24.66676        42.72126         2.49031
O         24.75452        16.73831         2.98700
O         27.63450        14.36186         3.37069
O         30.62196        27.56978         1.52291
O         31.55505        31.04140        -2.57555
O         21.26852         8.20555        -1.12133
O         15.90742        20.96102         1.66297
O         18.12115        28.22942         0.36313
O         20.58702        10.58023         2.25737
O         22.36200        54.66810         2.48370
O         17.63105        33.65180        -2.81652
O         24.48736        42.80067        -0.89849
O         33.95645        40.24424        -2.12458
O         24.11479        59.48002         1.72720
O         16.30720        46.02492        -0.83122
O         32.12811        38.94252         0.69536
O         24.61273        38.20614         1.83061
O         26.43785        44.13978         1.46202
O         18.67951        52.89643        -0.63868
O         10.92298        24.79262        -1.84972
O         28.63966        42.15387        -1.61629
O         33.74024        27.43225         1.78005
O         13.20911        35.96923         0.75759
O         32.89338        35.73078        -2.57953
O         27.76417        16.94607         3.08626
O         13.68173        33.70270        -2.59670
O         34.26399        34.78124         0.63433
O         26.09541        28.85879        -2.60610
O         17.92015        44.02831         2.06859
O         21.92249        17.39982        -0.37422
O         28.40278        27.67780        -2.27482
O         27.59185        31.19580        -3.04957
O          9.73763        34.64229         1.14658
O         28.01689        19.54698        -0.53762
O         30.05809        39.81077        -2.06455
O         34.06216        30.90440         1.27011
O         19.79792        20.96796         2.21570
O         19.85676        42.00516         2.21926
O         25.33553        14.39311         0.38618
O         18.44077        16.54526         2.29118
O         10.94986        36.00494        -2.06929
O         14.60245        21.83753        -2.29398
H         15.24664        22.49759        -2.72062
O         23.14311        53.32016        -0.75774
H         23.37484        52.45926        -1.19487
O         15.52293        44.61979         2.50450
H         16.40932        44.51285         2.93258
O         16.09139        11.98706         1.94749
H         16.57984        12.27366         2.74691
O         14.57441        44.06190        -0.96736
H         13.81044        43.63285        -1.40671
O         21.89024        52.11373         2.51671
H         21.91159        53.01396         2.92932
O         29.43710        35.99985        -3.14181
H         28.46499        36.06820        -3.38798
O         15.75872        35.20092         1.01428
H         14.88420        35.41389         1.42408
O         25.61435        22.71571        -1.39003
H         24.96482        23.26498        -1.88092
O         17.29795        16.62257        -1.15758
H         16.54534        16.96233        -1.68676
O         24.33956        47.83332         2.29893
H         24.94589        47.11798         2.58896
O         22.23732        25.98644        -2.52836
H         21.40646        26.07099        -3.05730
O         29.53575        46.33288         2.42660
H         28.70835        46.69561         2.80994
O         37.13549        38.56136        -2.68430
H         36.28657        38.97999        -2.94599
O         14.02410        24.87958        -3.04914
H         14.84693        24.47832        -3.45539
O         20.37095        33.13772         0.68330
H         21.05981        32.61692         1.14880
O         29.69259        38.18125         1.19613
H         30.60441        38.52398         1.38951
O         27.17662        37.61210         1.63387
H         28.10117        37.84506         1.89336
O         34.04373        31.50904        -2.38920
H         33.34205        31.57494        -3.08140
O         22.13973        42.77624         2.58995
H         21.89712        42.03909         3.18913
O         24.50465        18.04031        -0.49072
H         23.63602        17.68488        -0.81640
O         30.56551        20.27001        -1.22202
H         29.66957        19.89853        -1.42034
O         17.76935        23.82601         1.69543
H         17.78373        23.04056         2.28426
O         12.98562        44.18112         2.39099
H         13.83175        44.37863         2.86284
O          8.89539        34.47838        -2.18596
H          9.71182        34.91346        -2.55421
H          5.00495        31.10958         0.90068
H          4.87414        33.53335         0.49841
H          7.59574        26.87148         0.81754
H          6.32338        28.97910         0.92952
H          6.01727        35.65845         0.13816
H          7.28599        37.93051        -0.22618
H          9.91890        22.53715         0.29829
H          8.81903        24.79566         0.73598
H          8.57247        40.04782         0.00071
H          9.87871        42.18749        -0.11803
H         12.25794        18.21955        -0.05218
H         10.99617        20.41900        -0.18466
H         11.06869        44.25842         0.23425
H         12.35179        46.49909         0.94030
H         14.77075        13.99659         0.53170
H         13.48959        16.11024         0.30227
H         13.63758        48.62739         0.77968
H         14.86003        50.69954         0.81166
H         17.29932         9.81643         0.45326
H         16.30195        11.97427        -0.09646
H         15.99460        52.66543         1.37827
H         17.30619        55.20028         1.36403
H         20.15058         5.40165         0.36223
H         18.33447         7.73106         0.32548
H         18.52225        57.19248         0.83942
H         19.74338        59.29299         0.46164
H         23.50894         2.51836        -1.16665
H         21.33492         3.62478        -0.72844
H         23.08775        62.47604        -0.44282
H         21.10337        61.49275         0.40304
H         25.63672         3.80864        -0.97645
H         26.79856         5.85976        -0.42818
H         26.59023        58.91410        -0.47344
H         25.11938        61.23750        -0.97481
H         28.02151         7.92904         0.30566
H         29.16470        10.03019         0.64306
H         29.10978        55.04854         0.83897
H         27.82274        57.10742         0.43241
H         30.38340        12.14833         1.07394
H         31.63854        14.19421         1.29275
H         31.64980        50.77043         1.06351
H         30.38189        52.92204         0.99165
H         32.86603        16.33941         1.00266
H         34.06402        18.48623         0.62754
H         34.19410        46.47470         0.87714
H         32.89854        48.63121         1.14127
H         35.27637        20.63532         0.35432
H         36.44513        22.70775        -0.10199
H         36.67099        42.19318         0.28199
H         35.43631        44.30975         0.64474
H         37.69671        24.82731        -0.31360
H         38.99732        26.96667        -0.49394
H         39.25851        37.95652        -0.96065
H         37.93219        40.00230        -0.08937
H         40.30817        29.06783        -0.44647
H         41.59075        31.18893        -0.48616
H         41.62988        33.64883        -0.63965
H         40.44391        35.80985        -0.71249
