         470
 CSIRO Nanostructure Databank - Neutral Graphene Oxide Data Set
C         38.14754        50.31140        -0.49192
C         36.87993        50.81321        -0.78472
C         37.01276        52.29315         1.11908
C         36.29722        51.78503         0.03480
C         40.25688        48.77175         0.65293
C         40.16191        50.12004         0.97620
C         38.88386        50.77669         0.61800
C         40.18327        52.97646         2.01763
C         38.29816        51.80482         1.38332
C         40.16934        54.35524         1.92701
C         42.57637        48.55935         1.34031
C         41.43622        47.99900         0.82676
C         42.54873        49.99626         1.69821
C         41.31263        50.79645         1.53910
C         42.63054        52.96583         1.76067
C         41.36140        52.18290         1.80690
C         42.54742        54.40499         1.41660
C         41.33910        55.06085         1.54082
C         45.07922        45.70324         0.94711
C         43.89978        46.34003         1.20537
C         45.14109        48.52933         1.48089
C         43.83034        47.77899         1.53420
C         45.04873        49.97091         1.07755
C         43.89897        50.74891         1.62649
C         45.01604        52.87865         0.70504
C         43.93826        52.23227         1.49302
C         44.86352        54.31919         0.40582
C         43.77538        55.09386         1.05610
C         45.07885        57.14488         0.73002
C         43.90305        56.46099         1.15781
C         47.60776        44.24007         0.50493
C         47.55596        45.66671         0.56776
C         46.36333        46.35034         0.91132
C         47.61442        48.57641         0.67096
C         46.41682        47.79879         1.17473
C         47.51633        50.02599         0.36038
C         46.22169        50.71669         0.50271
C         47.35542        52.86522        -0.13628
C         46.17947        52.19783         0.35932
C         47.29468        54.29467        -0.66135
C         46.03688        55.06484        -0.20740
C         47.31044        57.26429        -0.36501
C         46.11393        56.51454         0.08740
C         47.40698        58.71696        -0.08132
C         49.97177        44.25400        -0.13463
C         48.76172        43.56870         0.17645
C         49.95969        45.68178        -0.12274
C         48.76330        46.39142         0.22924
C         49.89543        48.51018        -0.28326
C         48.75508        47.80399         0.14344
C         49.80666        49.96489        -0.51875
C         48.60064        50.71774        -0.11060
C         49.80555        52.89034        -0.46474
C         48.56690        52.16663        -0.29789
C         49.79661        54.34436        -0.41171
C         48.59962        55.03993        -0.44751
C         49.90682        57.29368        -0.65475
C         48.58712        56.51479        -0.62337
C         49.86170        58.64510         0.04078
C         48.60251        59.32678         0.13651
C         52.40252        41.44857        -0.76312
C         51.23183        42.13055        -0.48664
C         52.40019        44.27119        -0.68103
C         51.18718        43.54684        -0.44191
C         52.38628        45.70006        -0.66602
C         51.15525        46.40537        -0.42152
C         52.34524        48.58788        -0.59656
C         51.11784        47.82847        -0.48439
C         52.33673        49.96899        -0.60866
C         51.09048        50.74037        -0.72538
C         52.26600        52.91525        -0.39119
C         51.05504        52.21395        -0.51307
C         52.29693        54.33950        -0.26296
C         51.06362        55.07202        -0.30400
C         52.32529        57.16909        -0.02647
C         51.10052        56.46934        -0.23713
C         52.33435        58.58424         0.17434
C         51.08408        59.29773         0.29897
C         52.33931        61.34178         0.79618
C         51.14576        60.68029         0.67822
C         54.88743        40.02062        -1.45053
C         54.82721        41.41196        -1.35128
C         53.62023        42.12988        -0.99774
C         54.84473        44.29347        -1.05509
C         53.62166        43.55958        -0.92120
C         54.81492        45.70857        -1.03133
C         53.60251        46.42195        -0.85722
C         54.80280        48.55153        -0.49713
C         53.61750        47.86312        -0.67732
C         54.72230        49.94375         0.12035
C         53.64305        50.72075        -0.63703
C         54.80481        52.88800        -0.01091
C         53.51597        52.14991        -0.14411
C         54.80439        54.31296        -0.50858
C         53.52988        55.04475        -0.18801
C         54.81231        57.15900         0.02688
C         53.55882        56.44176        -0.03459
C         54.81530        58.56472         0.18730
C         53.57332        59.27975         0.31760
C         54.83510        61.39597         0.61168
C         53.58955        60.68084         0.58475
C         54.90845        62.79758         0.96857
C         57.34586        39.92788        -1.54225
C         56.09905        39.30425        -1.54043
C         57.38345        41.38394        -1.71988
C         56.04658        42.17617        -1.63023
C         57.31597        44.28515        -1.25687
C         56.09674        43.61297        -1.28876
C         57.35330        45.71595        -1.10879
C         56.07493        46.43688        -1.22629
C         57.35713        48.54926        -0.50796
C         56.07838        47.94153        -0.87092
C         57.36314        49.94690        -0.05002
C         56.05673        50.69135         0.16469
C         57.27851        52.84503        -0.16347
C         56.08338        52.14582        -0.05994
C         57.28488        54.30609        -0.19379
C         56.07755        55.04296        -0.18830
C         57.28486        57.19816        -0.08542
C         56.05975        56.45882        -0.06906
C         57.30303        58.59742         0.05155
C         56.05500        59.28523         0.21697
C         57.29443        61.43794         0.18205
C         56.03574        60.69545         0.37034
C         57.29424        62.94492         0.37078
C         56.06483        63.51380         0.93093
C         59.76959        37.10977        -0.97859
C         58.61388        37.79618        -1.21846
C         59.82545        39.92130        -1.34002
C         58.60096        39.22477        -1.36990
C         59.83371        41.37945        -1.35386
C         58.62411        42.09506        -1.44748
C         59.78959        44.20761        -0.82869
C         58.62756        43.59526        -1.59681
C         59.78193        45.69110        -0.60990
C         58.53915        46.43070        -0.91702
C         59.82108        48.56884        -0.56011
C         58.55647        47.85727        -0.68915
C         59.79182        49.97783        -0.43051
C         58.59452        50.71657        -0.27503
C         59.73783        52.89835        -0.26432
C         58.54408        52.14128        -0.21415
C         59.75819        54.31228        -0.26377
C         58.52307        55.00301        -0.23409
C         59.88994        57.21374        -0.06819
C         58.52532        56.45882        -0.33428
C         59.82146        58.62001         0.29089
C         58.56624        59.32770         0.18945
C         59.77541        61.45495         0.82201
C         58.56484        60.70984         0.30069
C         59.80238        62.92211         0.43892
C         58.60972        63.65300         0.42911
C         59.82552        65.70848        -0.02701
C         58.63720        65.05583         0.23010
C         62.24214        35.66524        -0.24549
C         62.20714        37.07255        -0.55332
C         61.04366        37.76860        -0.92082
C         62.29254        39.89019        -1.22013
C         61.07681        39.20188        -1.17772
C         62.31946        41.34268        -1.43933
C         61.06947        42.07928        -1.31386
C         62.38681        44.23973        -0.85080
C         61.10579        43.48435        -0.89081
C         62.37555        45.68404        -0.66819
C         61.09781        46.41890        -0.47668
C         62.31591        48.56807        -0.66296
C         61.08613        47.89081        -0.61638
C         62.34918        50.01182        -0.59721
C         61.06935        50.68625        -0.27020
C         62.24110        52.94079        -0.48377
C         61.01075        52.17471        -0.18537
C         62.20971        54.31926         0.02837
C         61.01928        55.01979        -0.01947
C         62.29520        57.10504         0.58596
C         61.07603        56.43164         0.25384
C         62.26057        58.53077         0.63112
C         61.04697        59.27709         0.54350
C         62.27985        61.41339         0.49837
C         61.07848        60.72283         0.60566
C         62.27665        62.84243         0.23872
C         61.04159        63.57958         0.19466
C         62.24851        65.57889        -0.59877
C         61.03992        64.98041        -0.11877
C         62.42351        66.99382        -0.96395
C         64.56630        35.76705         0.62047
C         63.36563        35.02724         0.18674
C         64.62929        37.22674         0.22019
C         63.51228        37.75178        -0.61197
C         64.80328        39.99177        -0.67292
C         63.57693        39.21439        -1.01186
C         64.82904        41.34589        -0.86403
C         63.62035        42.09766        -1.28205
C         64.85755        44.24866        -0.83114
C         63.58662        43.55994        -1.00500
C         64.86226        45.74189        -1.04296
C         63.55471        46.41114        -0.70625
C         64.79817        48.54597        -0.64673
C         63.56828        47.85315        -0.68210
C         64.83873        50.02455        -0.93740
C         63.52478        50.71468        -0.65020
C         64.71910        52.87627        -0.14268
C         63.51263        52.19719        -0.66626
C         64.55260        53.96169         0.64973
C         63.35679        54.85176         0.82765
C         64.79734        57.03912         0.70755
C         63.56151        56.37033         0.67368
C         64.80320        58.50919         0.95407
C         63.49815        59.27709         0.91567
C         64.77334        61.35390         0.39257
C         63.55334        60.71794         0.57615
C         64.78510        62.75571        -0.12087
C         63.46934        63.45313        -0.17980
C         65.23034        65.79297        -0.57225
C         63.34445        64.73547        -0.76911
C         64.72685        67.09182         0.03318
C         63.57367        67.67994        -0.75958
C         67.03917        33.01836         1.45392
C         65.86017        33.67229         1.11193
C         67.04567        35.79825         1.05355
C         65.84336        35.06316         0.92300
C         67.04358        37.28363         0.90574
C         65.91547        37.96087         0.22804
C         67.24768        40.02651        -0.08467
C         65.98940        39.28269        -0.17785
C         67.31073        41.39385        -0.40822
C         66.12660        42.09840        -1.00198
C         67.27942        44.25934        -0.15408
C         66.03055        43.56944        -0.66185
C         67.31150        45.75897        -0.37316
C         66.07148        46.46198        -0.48267
C         67.25118        48.60941         0.05278
C         66.02928        47.85950        -0.44046
C         67.26969        50.09051        -0.26097
C         66.07902        50.74639        -0.42172
C         67.34294        52.97098        -0.36039
C         66.03731        52.23571        -0.44696
C         67.47106        54.41249        -0.02305
C         66.41337        55.12095         0.59807
C         67.23486        57.34515        -0.06232
C         66.09749        56.45557         0.41970
C         67.30924        58.46479         1.02131
C         66.05373        59.29527         0.82991
C         67.24581        61.51637         1.01983
C         66.03738        60.65252         0.62952
C         67.38496        62.80277         0.20856
C         66.11591        63.53310        -0.14064
C         67.22610        65.66016         0.90978
C         66.16610        65.01824         0.01960
C         67.19642        67.21335         0.82441
C         65.96934        67.95325         0.33326
C         67.36391        69.89428        -0.29552
C         66.20952        69.22109        -0.39988
C         69.68872        32.97046         3.52293
C         69.46559        32.92535         2.01384
C         68.23379        33.73137         1.60720
C         69.54330        35.84701         1.45703
C         68.24430        35.12525         1.39480
C         69.62840        37.24166         1.00209
C         68.38856        38.02110         0.88922
C         69.70976        39.99302         0.14678
C         68.44413        39.35780         0.28728
C         69.77806        41.38026        -0.19576
C         68.54547        42.11196        -0.39536
C         69.77751        44.24998        -0.75688
C         68.54087        43.51633        -0.52273
C         69.79170        45.74544        -0.61817
C         68.52200        46.46026        -0.33313
C         69.75186        48.59426        -0.05989
C         68.55752        47.89431        -0.21845
C         69.79787        50.04198        -0.13396
C         68.55404        50.80061        -0.24891
C         69.83887        52.94012        -0.57019
C         68.58860        52.18299        -0.34999
C         69.87416        54.42181        -0.42056
C         68.64732        55.11960        -0.32969
C         69.89664        57.26820         0.05002
C         68.58106        56.59819        -0.26443
C         69.89963        58.54444         0.82416
C         68.60170        59.27077         1.07665
C         69.89258        61.48745         0.92816
C         68.59282        60.76961         1.12800
C         69.89235        62.89106         0.77846
C         68.63508        63.58528         0.40103
C         69.76628        65.75466         0.53000
C         68.58722        65.06275         0.52701
C         69.80192        67.23393         0.69611
C         68.51014        67.96740         0.85328
C         69.77306        70.13729         0.33542
C         68.43844        69.49309         0.69150
C         69.78387        71.53850         0.26431
C         72.07209        32.59146         3.19294
C         70.90804        32.76177         4.05348
C         72.00300        32.88126         1.87998
C         70.75404        33.48898         1.27469
C         72.00426        35.66790         0.79342
C         70.82884        35.01075         1.37681
C         72.03205        37.00614         0.57020
C         70.84863        37.82969         0.69611
C         72.13751        39.93913         0.36122
C         70.91160        39.25534         0.39447
C         72.19316        41.30433         0.09378
C         71.03080        42.04023        -0.19978
C         72.26722        44.26741        -0.09221
C         71.10876        43.47678        -0.55897
C         72.25817        45.60758         0.03439
C         71.08706        46.44834        -0.29556
C         72.26513        48.61323         0.19597
C         70.99690        47.82573         0.35390
C         72.25734        49.95242         0.02305
C         71.03375        50.70543        -0.12470
C         72.33921        52.94299        -0.10283
C         71.13808        52.15147        -0.43564
C         72.32836        54.29767        -0.09188
C         71.12204        55.09785        -0.24024
C         72.35983        57.27315         0.05751
C         71.15673        56.48691         0.03177
C         72.37161        58.61998         0.30437
C         71.20135        59.30490         0.89452
C         72.32443        61.54162         0.94155
C         71.13061        60.79569         0.97217
C         72.31507        62.92546         0.82048
C         71.09740        63.62020         0.67413
C         72.17533        65.79965         0.12867
C         71.04911        65.06266         0.42474
C         72.13503        67.21752        -0.04729
C         71.01571        67.95978         0.24110
C         72.15285        70.14950        -0.15330
C         70.97759        69.41941         0.13901
C         72.14084        71.53692        -0.24291
C         70.95209        72.24048        -0.02693
O         61.14583        51.37503         1.04383
O         68.27783        62.93243        -0.93130
O         38.99848        52.35538         2.46221
O         59.34406        56.96246        -1.41866
O         60.23910        43.53116         0.36034
O         64.40209        65.22661        -1.54901
O         63.89810        38.13285        -1.96776
O         57.16424        62.36380        -0.97480
O         66.29165        67.89752         1.75641
O         69.33579        31.61824         1.57638
O         64.09220        58.87144         2.19738
O         69.32750        57.30713        -1.31435
O         56.67771        41.87941        -2.92403
O         68.65358        59.97058         2.35391
O         44.90274        54.65940        -1.04643
O         43.35696        50.32140         2.87877
O         66.62312        52.80730        -1.68028
O         56.82977        50.21320         1.32075
O         67.52645        37.98285         2.09112
O         45.16872        50.08730        -0.37820
O         43.66585        52.82672         2.81211
O         50.25680        50.33392        -1.87111
O         65.62405        54.34563         1.45813
O         47.70680        56.91592        -1.74699
O         70.37215        35.55759         2.63772
O         56.05728        47.45050        -2.26715
O         65.56831        62.96030        -1.35378
O         63.14874        41.75747        -2.63358
O         47.45622        48.25492         2.11142
O         70.57727        52.47524        -1.75333
O         70.58428        43.77033        -1.87855
O         44.58081        48.15263         2.75309
O         70.59925        46.40492        -1.65665
O         54.04363        52.51098         1.18139
O         66.88272        61.98836         2.29567
O         64.22238        36.84614         1.57332
O         62.82454        52.78904        -1.83892
O         70.70177        58.49918         2.03337
O         69.30179        67.64090         2.04628
O         60.32065        46.01894         0.71339
O         67.13880        48.57674         1.52809
H         67.26780        47.64705         1.81414
O         54.26107        49.77688         1.47517
H         55.05788        49.76450         2.05346
O         70.63622        33.14491        -0.10132
H         70.30190        32.21567        -0.10462
O         58.88780        43.88662        -3.00635
H         58.18953        43.42141        -3.52233
O         67.22930        57.77225         2.28524
H         67.40763        58.44632         2.98178
O         67.19247        44.11518         1.31936
H         66.33328        44.49167         1.60764
O         50.17387        57.61990        -2.05596
H         49.29237        57.65807        -2.49934
O         66.39146        42.09247        -2.45075
H         65.56756        42.36544        -2.91158
O         70.83977        47.54572         1.78761
H         70.78943        48.40542         2.25669
O         66.86115        57.94743        -1.31036
H         67.66685        57.99610        -1.87597
O         62.95815        54.70991         2.23622
H         63.74705        54.93300         2.77787
O         64.14424        66.68541         1.29823
H         64.83990        66.81940         1.99014
O         47.18773        54.14152        -2.10851
H         46.22417        54.11878        -2.31654
O         54.80545        54.14805        -1.97616
H         54.85140        55.04151        -2.37876
O         66.97286        65.28409         2.27330
H         67.65062        65.70822         2.84087
O         59.55981        61.44687         2.29094
H         60.39175        61.75644         2.71036
O         68.04168        70.03303         1.97521
H         68.46211        69.46833         2.66092
O         65.00122        50.11188        -2.39964
H         65.12913        51.05937        -2.63020
O         54.08412        50.80040        -2.01732
H         53.34441        51.13039        -2.56967
O         64.98605        45.87379        -2.50540
H         65.00460        46.83292        -2.71610
H         38.58179        49.54998        -1.15491
H         36.33427        50.43298        -1.65868
H         36.58468        53.07127         1.76402
H         35.28945        52.16222        -0.18606
H         39.38153        48.26112         0.23027
H         39.23897        54.90245         2.12280
H         41.41075        46.93858         0.54135
H         41.26953        56.14089         1.35274
H         45.03531        44.62965         0.71542
H         42.96624        45.76070         1.17051
H         45.13759        58.22348         0.93026
H         43.10232        57.05533         1.61788
H         46.71526        43.65371         0.76060
H         46.48660        59.31746        -0.08361
H         48.73881        42.47104         0.17265
H         48.59433        60.39907         0.37837
H         52.37094        40.35182        -0.80268
H         50.32034        41.54478        -0.31074
H         52.32407        62.41195         1.04141
H         50.21806        61.24560         0.83633
H         53.96776        39.42848        -1.34884
H         54.00769        63.28710         1.36393
H         56.03305        38.20857        -1.50344
H         56.09304        64.53109         1.34792
H         59.71842        36.02252        -0.83482
H         57.66928        37.23912        -1.26571
H         59.82836        66.79029        -0.21770
H         57.69353        65.61931         0.23874
H         61.34573        35.06042        -0.44210
H         61.56779        67.52191        -1.41625
H         63.34723        33.93357         0.28688
H         63.61583        68.73677        -1.06378
H         67.06223        31.92926         1.60074
H         64.93364        33.09052         1.01747
H         67.51318        70.81168        -0.88463
H         65.43820        69.56607        -1.10400
H         68.80399        33.05999         4.17151
H         68.85183        72.08788         0.45770
H         73.00128        32.20087         3.63355
H         71.04614        32.69139         5.14259
H         72.86540        32.72249         1.21483
H         72.86397        35.04283         0.51252
H         72.94359        37.45776         0.15507
H         73.07399        39.40478         0.56713
H         73.17594        41.79360         0.07356
H         73.15878        43.71923         0.24490
H         73.14043        46.09962         0.46897
H         73.22539        48.08508         0.27794
H         73.21590        50.48226        -0.06426
H         73.27530        52.42033         0.13994
H         73.26360        54.82302         0.14742
H         73.30057        56.79461        -0.25189
H         73.30507        59.18044         0.15395
H         73.29023        61.02336         1.01624
H         73.27096        63.46596         0.80269
H         73.14695        65.30153         0.00904
H         73.05859        67.70821        -0.38243
H         73.10395        69.62135        -0.30281
H         73.06985        72.07788        -0.46982
H         70.93918        73.33771        -0.07893
