         266
 CSIRO Nanostructure Databank - Neutral Graphene Oxide Data Set
C        -11.22355         0.61531        -0.30473
C        -10.01240         1.40834        -0.10146
C         -8.78215         0.64276         0.05602
C         -7.51659         1.42347         0.06540
C         -6.25911         0.70598        -0.25060
C         -4.98229         1.26543         0.31315
C         -3.65006         0.54919         0.04000
C         -2.54668         1.44059        -0.51408
C         -1.26892         0.75564        -0.85752
C          0.00188         1.42778        -0.34953
C          1.29984         0.69275        -0.61273
C          2.51512         1.40832        -0.60374
C          3.71930         0.71092        -0.34718
C          5.00840         1.44494        -0.28148
C          6.11689         0.83666         0.53415
C          7.38063         1.60563         0.69781
C          8.65797         0.88605         0.34757
C          9.94346         1.65780         0.64061
C         11.15941         0.78289         0.43249
C         -9.99487         2.78170        -0.05627
C         -8.81725         3.53030         0.47138
C         -7.55242         2.76605         0.73232
C         -6.24806         3.55140         0.96554
C         -4.97068         2.70970         0.72452
C         -3.64379         3.45459         0.71929
C         -2.49583         2.88254        -0.07321
C         -1.22116         3.65709        -0.23711
C          0.05583         2.92987        -0.52213
C          1.23208         3.60011        -0.60672
C          2.46270         2.83413        -1.13158
C          3.80868         3.61560        -1.08348
C          5.08678         2.89093        -0.66515
C          6.09426         3.75634         0.11312
C          7.48684         3.13484         0.50866
C          8.67009         3.54862        -0.36840
C          9.85158         2.90361        -0.25688
C         -8.69256         5.00186         0.26627
C         -7.50441         5.63621         0.10213
C         -6.22064         4.87744         0.22509
C         -4.91204         5.60746         0.28502
C         -3.64542         4.95630         0.76520
C         -2.36963         5.71599         0.61429
C         -1.10051         4.94970         0.52239
C          0.21635         5.65174         0.55755
C          1.19884         5.14469        -0.59136
C          2.58968         5.74653        -0.37968
C          3.81242         5.12404        -1.02890
C          5.12941         5.86023        -0.86329
C          6.37725         5.04165        -0.67335
C          7.60487         5.80021        -0.26680
C          8.40988         4.83649        -1.11233
C         -7.48993         7.11811        -0.28133
C         -6.12240         7.81711        -0.31596
C         -4.86185         7.09101         0.03758
C         -3.64448         7.83168         0.51954
C         -2.36139         7.09202         0.60083
C         -1.10974         7.86044         0.81609
C          0.23708         7.10711         1.13358
C          1.48481         7.93567         0.74663
C          2.65031         7.13430         0.16833
C          3.86172         7.96682        -0.13328
C          5.16605         7.25798        -0.35008
C          6.32947         7.73701         0.52313
C          7.63790         7.09822         0.08838
C         -6.08909         9.30725        -0.31396
C         -4.92062         9.97725        -0.30218
C         -3.63808         9.35223         0.12464
C         -2.35219         9.83605        -0.31609
C         -1.12920         9.36058         0.26354
C          0.18449        10.01248         0.03042
C          1.33903         9.33722         0.21570
C          2.55833         9.74835         1.02138
C          3.86873         9.37106         0.34915
C          5.20046         9.98478         0.61894
C          6.33255         9.25681         0.61242
C        -11.23932        -0.71988        -0.10680
C        -10.02414        -1.50692         0.33063
C         -8.76044        -0.72218         0.11664
C         -7.43239        -1.45053         0.36724
C         -6.42510        -0.78036        -0.62662
C         -5.07560        -1.44845        -0.84836
C         -3.77804        -0.73119        -0.76713
C         -2.50689        -1.51993        -0.79352
C         -1.24828        -0.74410        -0.99058
C          0.06188        -1.45020        -0.89002
C          1.30728        -0.71371        -0.56739
C          2.50663        -1.41994        -0.27228
C          3.70040        -0.66405        -0.08109
C          4.85037        -1.42667         0.54346
C          6.24210        -0.70284         0.62680
C          7.37527        -1.29429        -0.22714
C          8.65331        -0.50093        -0.22510
C          9.95878        -1.26136        -0.49992
C         11.15253        -0.50683         0.06016
C         -9.95760        -2.89727        -0.26712
C         -8.79384        -3.64238        -0.24929
C         -7.48336        -3.01262         0.19390
C         -6.34299        -3.64089        -0.58024
C         -5.06327        -2.94421        -0.86579
C         -3.79268        -3.60980        -0.32306
C         -2.51683        -2.87233        -0.68502
C         -1.25478        -3.62101        -0.45790
C          0.04611        -2.93983        -0.76018
C          1.31164        -3.64257        -0.40406
C          2.50167        -2.84833        -0.07191
C          3.68077        -3.58135         0.21816
C          4.94280        -2.81348        -0.13202
C          6.24014        -3.53034         0.28203
C          7.44738        -2.78604        -0.26960
C          8.75567        -3.49484        -0.18584
C          9.91367        -2.73839        -0.14523
C         -8.76917        -5.04905        -0.50129
C         -7.58913        -5.82775        -0.30386
C         -6.30834        -5.05166        -0.03533
C         -5.07539        -5.82238        -0.47240
C         -3.76241        -5.11095        -0.59971
C         -2.51056        -5.89051        -0.39097
C         -1.25993        -5.10023        -0.23822
C          0.04927        -5.85769        -0.42119
C          1.20802        -5.03390         0.13970
C          2.44055        -5.69570         0.72492
C          3.70112        -4.95006         0.48898
C          4.94322        -5.71085         0.21918
C          6.22472        -4.99422        -0.09421
C          7.54030        -5.70434        -0.07728
C          8.73104        -4.92544        -0.10907
C         -7.55695        -7.20677        -0.15617
C         -6.31201        -7.87956         0.40685
C         -5.07149        -7.29897        -0.25588
C         -3.76466        -8.01759        -0.17690
C         -2.49728        -7.25046        -0.27329
C         -1.20264        -8.05861        -0.34359
C         -0.03544        -7.24056         0.25485
C          1.35355        -7.94424         0.15709
C          2.41513        -7.21135         1.05060
C          3.77432        -7.92740         0.89843
C          5.03791        -7.13944         0.64110
C          6.32118        -7.86809         0.30023
C          7.51706        -7.09690        -0.12235
C         -6.22886        -9.39563         0.31980
C         -5.05143       -10.03471         0.45015
C         -3.75797        -9.27066         0.68505
C         -2.45929       -10.04157         0.59963
C         -1.25385        -9.42034         0.32896
C          0.00070       -10.06586         0.55465
C          1.26925        -9.42798         0.45860
C          2.46956       -10.11677         0.55553
C          3.77411        -9.41005         0.62560
C          5.01690        -9.98935         0.06070
C          6.17915        -9.30515        -0.03298
O         -0.15504         4.74509         1.63694
O         -5.03078         1.63055         1.72824
O          1.94049        -7.78625        -1.19378
H         -0.87903        -7.48693        -2.21799
O         -6.86304         1.57562        -1.25954
O          1.44007        -5.01910         1.56646
O         -5.20025         7.35941        -1.36311
O         -0.51117        -1.10200        -2.20639
O         -7.10804        -0.86630        -1.88622
H         -6.49050        -0.54590        -2.58115
O          9.96276         2.07163         2.01433
H          9.22053         2.73860         2.13690
O         -3.48875         4.14724         1.99242
O         -1.28011         8.97783         1.68298
O          3.82104         4.44469        -2.30120
O          3.62494         9.06130        -1.07277
O         -4.58308        -8.07989        -1.38269
O         -1.25989        -4.20136         0.91962
O          6.00312        -7.42232         1.68942
O          8.55821         0.64764        -1.12039
O          0.68872         5.60442        -1.78457
O          6.78460        -1.00190         1.94425
H          6.63881        -0.19639         2.50986
O         -3.79708         8.85620         1.50603
O         -4.53319        -5.48385        -1.77873
O         -5.93493        -3.45211        -1.93880
O          6.49016         1.38712         1.84078
O          5.55593         1.88861        -1.58661
O          4.38969        -1.63584         1.89752
O         -0.16190         1.26038         1.10972
H          0.57531         1.72079         1.56620
O          5.37769        -5.42496        -1.19519
O         -7.20741        -3.57425         1.54694
O          2.92737         5.97549         1.02098
O         -0.99816        -8.34933        -1.74876
O         -7.20822        -1.12029         1.69396
O         -4.47159        -0.77861        -2.03634
O          5.38411         6.98705        -1.75700
O          2.15901         2.61393        -2.52741
H          2.37049         3.44939        -3.00811
O         -2.11128         1.31771        -1.89368
O         -3.12695         0.07216         1.30468
H         -3.61612         0.53124         2.03078
O          3.98116        -8.86181         1.99912
O          7.14816         4.60984        -1.88398
O         -3.77275        -8.77965         2.06007
H         -3.86772        -9.54493         2.66394
O         -6.31316        -4.76462         1.40329
O         -6.20213         3.93424         2.34970
H         -6.21068         3.11314         2.88851
O          2.17233         8.62466         1.92266
O         -5.36614         4.89780        -0.93675
O          0.87139        -3.53833        -1.81852
O         -3.92502        -3.44331         1.11256
H         -3.06946        -3.70978         1.52728
O         -8.35470         7.84667         0.59738
H         -8.16385         7.59041         1.52299
O          7.17598        -1.99697        -1.47079
O         -8.47878         2.97670         1.81902
O          7.81909         3.67078         1.77107
O         -2.23650         3.72788        -1.26104
O          2.04775        -7.31002         2.42803
H          2.56649        -8.05540         2.81849
H          4.89487        -2.38888         2.28289
O        -10.09573        -1.72710         1.77872
H         -9.16991        -1.65782         2.12754
O         10.13828        -1.27257        -1.94557
H          9.65401        -0.48845        -2.29547
O          6.00732         7.25278         1.85695
H          6.82179         7.26364         2.40070
O          0.25397         7.02654         2.55165
H         -0.04068         6.12370         2.81617
O         -6.25243        -7.49656         1.80616
H         -7.13123        -7.64159         2.21296
O          6.33723        -3.57714         1.72934
H          6.76744        -2.74212         2.05281
O          0.23204        -6.05229        -1.83587
H          0.45766        -5.17527        -2.24508
O          5.41967         4.08497         1.32502
H          6.15107         4.10445         2.01040
O          4.87213        -2.65171        -1.55292
H          5.02268        -3.53024        -1.96942
O          1.63877        -8.96618        -1.98539
H          0.64436        -8.89738        -2.10128
O         -0.42038        -7.07392         1.61859
H          0.23620        -6.49743         2.08097
H         12.11504        -1.04080        -0.00006
H         12.11859         1.23544         0.73141
H         10.74607         3.26222        -0.79081
H          9.25380         5.20601        -1.73765
H          8.57565         7.67371         0.13312
H          7.29715         9.76007         0.78800
H          5.24531        11.07520         0.77216
H          2.54089        10.73815         1.53222
H          0.19340        11.11026        -0.05530
H         -2.31341        10.45827        -1.22214
H         -4.91143        11.06817        -0.44650
H         -7.03384         9.83917        -0.49688
H         -7.93064         7.21392        -1.30888
H         -9.62215         5.58170         0.14484
H        -10.92564         3.34581        -0.22501
H        -12.14982         1.14252        -0.58039
H        -12.18327        -1.27580        -0.21795
H        -10.90003        -3.38423        -0.56892
H         -9.71748        -5.56166        -0.72991
H         -8.48620        -7.79069        -0.26455
H         -7.15661        -9.97307         0.17841
H         -5.01610       -11.13540         0.41410
H         -2.44145       -11.05370         1.04042
H         -0.01355       -11.11920         0.87961
H          2.46936       -11.21281         0.66215
H          4.97658       -11.03227        -0.28777
H          7.05647        -9.80130        -0.47584
H          8.45684        -7.65335        -0.26614
H          9.69525        -5.45618        -0.07444
H         10.88235        -3.25734        -0.06028
