         204
 CSIRO Nanostructure Databank - Neutral Graphene Oxide Data Set
C        -11.04929         0.64740        -0.16929
C         -9.81538         1.41477        -0.10228
C         -8.58413         0.71295        -0.04941
C         -7.36052         1.41383        -0.12262
C         -6.13312         0.68514        -0.28263
C         -4.92566         1.45215        -0.53505
C         -3.56460         0.67859        -0.49633
C         -2.37855         1.43628        -0.11002
C         -1.24213         0.72077         0.29945
C         -0.02595         1.46754         0.63835
C          1.29829         0.71194         0.69225
C          2.52354         1.44815         0.42759
C          3.80526         0.69643         0.25164
C          4.84649         1.50988        -0.50672
C          6.17602         0.85624        -0.92205
C          7.38861         1.48693        -0.28157
C          8.56430         0.74088        -0.18958
C          9.80145         1.42809         0.08871
C         11.01338         0.65180         0.21146
C         -9.81943         2.81820        -0.14921
C         -8.60763         3.55754        -0.14042
C         -7.36505         2.84741        -0.15843
C         -6.13758         3.58149        -0.16057
C         -4.89945         2.89311        -0.25496
C         -3.67335         3.58823        -0.16024
C         -2.41809         2.88210        -0.08514
C         -1.23542         3.61854         0.10962
C          0.06747         2.87056         0.07670
C          1.22972         3.65115         0.63212
C          2.55523         2.88756         0.68089
C          3.75245         3.67225         0.39890
C          4.89502         2.97329        -0.22013
C          6.19722         3.66496        -0.16961
C          7.39833         2.91008        -0.13443
C          8.64301         3.59975         0.07940
C          9.82893         2.81933         0.18877
C         -8.59839         4.98163        -0.13574
C         -7.39980         5.71330        -0.11797
C         -6.14530         5.00764        -0.11379
C         -4.91974         5.72344        -0.09164
C         -3.67762         5.01696        -0.06323
C         -2.45535         5.74035         0.03592
C         -1.22123         5.03549         0.13302
C          0.01491         5.77338         0.22983
C          1.25002         5.09515         0.38863
C          2.47288         5.78774         0.45584
C          3.72976         5.05712         0.40329
C          4.97446         5.78676         0.20725
C          6.20532         5.05869         0.03687
C          7.45835         5.76212         0.10479
C          8.65307         5.01300         0.14019
C         -7.37637         7.14425        -0.12388
C         -6.17928         7.85608        -0.11800
C         -4.92024         7.15546        -0.08529
C         -3.70132         7.87148        -0.05965
C         -2.45533         7.17329         0.01763
C         -1.23209         7.89144         0.06291
C          0.01009         7.19681         0.18615
C          1.24619         7.91364         0.28343
C          2.45902         7.20804         0.41202
C          3.73893         7.91566         0.56125
C          4.99321         7.17848         0.30783
C          6.22955         7.89649         0.17205
C          7.43179         7.19148         0.12228
C         -6.14923         9.30060        -0.14662
C         -4.97277         9.99112        -0.14798
C         -3.69781         9.31293        -0.10124
C         -2.49184        10.00842        -0.10208
C         -1.23292         9.33148        -0.02317
C         -0.01372        10.02334        -0.03972
C          1.24516         9.36137         0.11770
C          2.45002        10.06325         0.03397
C          3.73217         9.44297         0.36044
C          5.02439        10.05082        -0.01724
C          6.18082         9.34160        -0.00577
C        -11.04792        -0.71563        -0.24909
C         -9.83052        -1.48719        -0.17241
C         -8.57537        -0.76157         0.24938
C         -7.31109        -1.47330        -0.15450
C         -6.10058        -0.74266        -0.30359
C         -4.85165        -1.46777        -0.37767
C         -3.60169        -0.76916        -0.28162
C         -2.39628        -1.42525         0.04173
C         -1.21414        -0.70288         0.36140
C          0.03567        -1.40583         0.55864
C          1.25627        -0.74557         0.52937
C          2.48495        -1.44314         0.18986
C          3.61124        -0.73947        -0.19747
C          4.79953        -1.43981        -0.74404
C          6.10745        -0.68157        -0.87247
C          7.36910        -1.42441        -0.61171
C          8.55000        -0.71135        -0.34040
C          9.77984        -1.43690        -0.15151
C         11.00074        -0.70481         0.09833
C         -9.80728        -2.85554        -0.30477
C         -8.57714        -3.60728        -0.22712
C         -7.32557        -2.87855        -0.19356
C         -6.09298        -3.60059        -0.23285
C         -4.87939        -2.88873        -0.31206
C         -3.62190        -3.65163        -0.35424
C         -2.31812        -2.88410        -0.11579
C         -1.17389        -3.61949         0.39114
C          0.02038        -2.87302         0.90678
C          1.29314        -3.60486         0.56328
C          2.46278        -2.90832         0.20701
C          3.65441        -3.62084        -0.03896
C          4.79336        -2.97377        -0.78029
C          6.13568        -3.59807        -0.47591
C          7.34437        -2.85722        -0.50777
C          8.58690        -3.57248        -0.34970
C          9.79015        -2.82917        -0.21447
C         -8.56075        -5.00178        -0.27173
C         -7.34854        -5.74462        -0.20172
C         -6.09874        -5.04372        -0.15727
C         -4.89445        -5.76008         0.01768
C         -3.63034        -5.07076         0.03493
C         -2.45414        -5.71805         0.37666
C         -1.19724        -5.00967         0.49269
C          0.03281        -5.71237         0.77172
C          1.27425        -5.02783         0.63364
C          2.50170        -5.75143         0.40865
C          3.68733        -5.02703         0.07845
C          4.91627        -5.73040        -0.17134
C          6.14806        -5.00032        -0.33279
C          7.39182        -5.72077        -0.35223
C          8.59095        -4.98612        -0.34004
C         -7.34087        -7.17044        -0.17832
C         -6.16454        -7.89077         0.00219
C         -4.91180        -7.19143         0.17715
C         -3.75629        -7.87454         0.54997
C         -2.51218        -7.12335         0.91322
C         -1.23696        -7.89180         0.68341
C          0.00778        -7.17130         0.92042
C          1.31926        -7.94647         0.65554
C          2.52015        -7.16678         0.32469
C          3.69392        -7.85846        -0.04332
C          4.91879        -7.13907        -0.20658
C          6.15903        -7.85178        -0.39475
C          7.36121        -7.15021        -0.40889
C         -6.12831        -9.34175         0.04426
C         -5.01424       -10.02380         0.40090
C         -3.76347        -9.33985         0.87990
C         -2.51166        -9.93789         0.30781
C         -1.26669        -9.26821         0.38490
C         -0.02524        -9.95568         0.08409
C          1.21483        -9.33641         0.16229
C          2.44301        -9.97871        -0.20131
C          3.65810        -9.29234        -0.22628
C          4.90941        -9.96421        -0.48723
C          6.09609        -9.28899        -0.53176
O          0.39281         2.70354        -1.34551
H         -0.41461         2.39932        -1.81276
O          4.41511         0.56952         1.60279
H          3.69447         0.37433         2.24060
O         -3.71703        -9.49227         2.37256
H         -4.61973        -9.30392         2.70845
O          1.80081         3.29557         1.90290
O         -8.57711        -0.83390         1.73532
H         -9.40580        -0.40467         2.03876
O          5.30708        -1.02719        -2.06948
O         -2.54413        -6.99762         2.38822
H         -2.73479        -7.91085         2.72739
O         -2.74178        -3.32188        -1.46870
O         -4.18741         1.09227        -1.74894
O          4.38309         2.41286        -1.53528
O          3.77525         8.82613         1.70178
O          0.54429         1.16466         1.92307
O          4.50871        -3.37139        -2.16413
H          4.95666        -2.70621        -2.73910
O          6.40861         1.19062        -2.31310
H          5.68901         0.77007        -2.83474
O         -0.09727        -2.89176         2.37949
H          0.67225        -2.40570         2.74483
O          0.83620        -7.72320         2.01010
H         11.93328        -1.27810         0.20779
H         11.95635         1.18332         0.40744
H         10.79052         3.32827         0.35501
H          9.61564         5.53797         0.23542
H          8.38296         7.74315         0.07654
H          7.12819         9.85153        -0.23855
H          5.03724        11.11981        -0.27957
H          2.44059        11.11509        -0.29104
H         -0.02143        11.11923        -0.14205
H         -2.50021        11.10792        -0.15192
H         -4.97823        11.09089        -0.17732
H         -7.10669         9.84179        -0.17515
H         -8.33167         7.69048        -0.14363
H         -9.55852         5.51926        -0.13971
H        -10.77843         3.35660        -0.18205
H        -11.99888         1.19952        -0.22643
H        -11.99726        -1.25613        -0.38534
H        -10.74430        -3.40284        -0.49466
H         -9.51396        -5.54961        -0.32822
H         -8.29673        -7.70846        -0.27080
H         -7.04334        -9.88927        -0.23045
H         -5.03127       -11.12426         0.42491
H         -2.55738       -10.93290        -0.16183
H         -0.08137       -11.00718        -0.23578
H          2.42386       -11.05105        -0.44916
H          4.89445       -11.05613        -0.62185
H          7.03449        -9.83840        -0.69925
H          8.31171        -7.69922        -0.48913
H          9.55379        -5.51764        -0.30492
H         10.74210        -3.36947        -0.10085
