         204
 CSIRO Nanostructure Databank - Neutral Graphene Oxide Data Set
C        -11.08415         0.68019         0.48443
C         -9.86709         1.43525         0.32242
C         -8.64591         0.72001         0.10739
C         -7.43546         1.44085        -0.13629
C         -6.18104         0.72028        -0.24386
C         -4.92905         1.40640        -0.39039
C         -3.68854         0.73215        -0.33285
C         -2.44138         1.42566        -0.56074
C         -1.23878         0.70033        -0.57221
C          0.01242         1.34830        -1.00903
C          1.28005         0.64799        -0.77624
C          2.57533         1.33586        -1.15889
C          3.77109         0.68995        -0.49487
C          4.93499         1.42511        -0.28801
C          6.15115         0.78009         0.23540
C          7.44514         1.46533         0.09965
C          8.64545         0.73424         0.29492
C          9.89307         1.44944         0.33213
C         11.11659         0.69468         0.47508
C         -9.84794         2.83663         0.39871
C         -8.64841         3.56117         0.20721
C         -7.46058         2.84926        -0.12457
C         -6.25274         3.61112        -0.47714
C         -4.92416         2.85369        -0.64196
C         -3.66648         3.60273        -0.50868
C         -2.42331         2.87190        -0.66274
C         -1.23483         3.56772        -0.88344
C          0.00689         2.86897        -1.26062
C          1.33773         3.63978        -1.42689
C          2.56593         2.84624        -0.99541
C          3.73953         3.52191        -0.77853
C          4.98520         2.83670        -0.50509
C          6.20935         3.54671        -0.39165
C          7.44607         2.85261        -0.14428
C          8.69466         3.58363        -0.01451
C          9.89521         2.83937         0.23862
C         -8.60024         4.99056         0.33817
C         -7.40613         5.70417         0.26705
C         -6.17605         5.02178        -0.08456
C         -4.94548         5.66464        -0.03646
C         -3.70049         4.98827        -0.31328
C         -2.46895         5.76153        -0.40529
C         -1.25462         5.04396        -0.87366
C          0.05395         5.77262        -0.79300
C          1.32193         5.01189        -0.76897
C          2.47799         5.64331        -0.45924
C          3.77066         5.02453        -0.92371
C          5.01700         5.68937        -0.40160
C          6.21224         4.98604        -0.41737
C          7.51258         5.73819        -0.55998
C          8.71352         4.96685        -0.10870
C         -7.36396         7.12990         0.47603
C         -6.16726         7.81401         0.54386
C         -4.90372         7.04944         0.46767
C         -3.59493         7.80269         0.40759
C         -2.42268         7.11307        -0.16052
C         -1.21666         7.95936        -0.53882
C          0.06959         7.18421        -0.36124
C          1.23277         7.78267         0.02406
C          2.48151         6.96234         0.27039
C          3.76190         7.75296         0.11807
C          4.98128         7.09187        -0.09367
C          6.23722         7.79876         0.11321
C          7.44066         7.14141        -0.02844
C         -6.08074         9.23719         0.72708
C         -4.88899         9.92192         0.68471
C         -3.62736         9.28217         0.44975
C         -2.42874         9.97499         0.38487
C         -1.18812         9.30455         0.15519
C          0.02466         9.90078         0.46010
C          1.26426         9.19619         0.36719
C          2.49536         9.81573         0.61387
C          3.73218         9.13732         0.45038
C          4.97770         9.83861         0.61076
C          6.17551         9.19465         0.47942
C        -11.09241        -0.68578         0.43191
C         -9.87420        -1.43546         0.25605
C         -8.64981        -0.70427         0.12879
C         -7.41787        -1.41421         0.03470
C         -6.19173        -0.67389        -0.05886
C         -4.91995        -1.36513         0.15080
C         -3.65657        -0.67531        -0.09759
C         -2.45603        -1.40359        -0.13237
C         -1.21421        -0.70900        -0.32699
C          0.01240        -1.42267        -0.31982
C          1.26344        -0.70854        -0.46336
C          2.50502        -1.44246        -0.32001
C          3.73673        -0.72904        -0.25526
C          4.92732        -1.44636         0.02475
C          6.15666        -0.72760         0.36054
C          7.44119        -1.43641         0.31587
C          8.64569        -0.70256         0.37147
C          9.88791        -1.42489         0.42979
C         11.11543        -0.66943         0.50783
C         -9.86200        -2.83920         0.20651
C         -8.65540        -3.56172         0.02081
C         -7.43950        -2.83083        -0.04539
C         -6.19252        -3.54536        -0.34293
C         -4.90979        -2.90370         0.03868
C         -3.65540        -3.57155        -0.24001
C         -2.46258        -2.85021        -0.15413
C         -1.21114        -3.55554        -0.15794
C          0.01194        -2.84725        -0.16436
C          1.25955        -3.56701        -0.07231
C          2.49582        -2.84994        -0.13732
C          3.72071        -3.57035         0.00572
C          4.95141        -2.85726         0.05788
C          6.19718        -3.56477         0.18813
C          7.43539        -2.84994         0.25794
C          8.67788        -3.56698         0.31282
C          9.88520        -2.82415         0.40746
C         -8.63357        -5.00512        -0.00793
C         -7.46922        -5.74750        -0.15761
C         -6.19842        -5.05738        -0.44806
C         -4.92250        -5.76429        -0.29504
C         -3.64860        -5.02756        -0.64820
C         -2.41397        -5.71861        -0.12343
C         -1.24497        -4.98597         0.01519
C          0.00224        -5.64630         0.42546
C          1.27474        -4.95724         0.18235
C          2.48704        -5.69102         0.25590
C          3.72331        -4.98860         0.15444
C          4.96142        -5.69434         0.20715
C          6.19722        -4.98112         0.20422
C          7.44646        -5.69776         0.24363
C          8.65371        -4.98621         0.28740
C         -7.39981        -7.17263        -0.01544
C         -6.18840        -7.85465        -0.02084
C         -4.92328        -7.13694        -0.11276
C         -3.67564        -7.86481        -0.05718
C         -2.43685        -7.15545         0.01616
C         -1.23855        -7.88101         0.17834
C          0.00883        -7.18072         0.49046
C          1.28915        -7.87205         0.36360
C          2.49560        -7.13229         0.37759
C          3.74531        -7.82354         0.39395
C          4.95699        -7.12268         0.29096
C          6.21959        -7.83184         0.23421
C          7.41114        -7.13354         0.21145
C         -6.13322        -9.29659         0.04893
C         -4.95050        -9.97495         0.01781
C         -3.67543        -9.28827        -0.02016
C         -2.46071        -9.99197        -0.02528
C         -1.21452        -9.30745         0.05954
C          0.02815        -9.98725         0.06706
C          1.28244        -9.31104         0.20350
C          2.49853        -9.99689         0.22661
C          3.74800        -9.30365         0.69336
C          5.02813        -9.97599         0.27557
C          6.17641        -9.28477         0.13105
O         -0.63524         5.60764        -2.11908
O         -3.56952        -5.07555        -2.11924
H         -4.43638        -4.73376        -2.44715
O         -6.18822        -4.18676        -1.66322
O         -1.35866         8.25554        -1.96544
H         -1.20757         7.40075        -2.43964
O          3.71490        -9.41329         2.17536
H          2.90336        -8.95097         2.47778
O          1.48589         3.88119        -2.86254
H          0.69811         4.41439        -3.12886
O          2.71815         1.11284        -2.60707
H          1.95469         1.57093        -3.03220
O         -4.94975        -2.23863         1.33807
O          2.43043         6.59908         1.69877
H          2.48025         7.43341         2.21270
O         -4.06049         7.19646         1.67061
O          3.83065         5.29848        -2.36760
H          3.07748         4.80351        -2.78647
O          7.68025         5.89528        -2.03649
H          6.80391         6.15319        -2.39860
O         -0.07355        -6.34075         1.70834
O         -0.13961         1.92768        -2.37002
O          5.98701         0.13990         1.54922
O         -5.72267         3.28412        -1.80255
H         12.06403        -1.22069         0.58852
H         12.06615         1.24752         0.52937
H         10.84735         3.38647         0.31086
H          9.66214         5.50876         0.02602
H          8.38210         7.69672         0.10445
H          7.11913         9.73837         0.63257
H          4.94769        10.90747         0.86861
H          2.51223        10.88588         0.86998
H          0.03555        10.92794         0.85719
H         -2.41817        11.05794         0.58668
H         -4.89488        11.01621         0.80042
H         -7.01738         9.79513         0.87484
H         -8.31390         7.67356         0.59103
H         -9.53259         5.52655         0.57016
H        -10.77876         3.38195         0.61468
H        -12.02348         1.23125         0.63981
H        -12.03794        -1.23718         0.54096
H        -10.81094        -3.38979         0.29147
H         -9.58069        -5.53516         0.17604
H         -8.33710        -7.73869         0.09669
H         -7.08280        -9.84965         0.10332
H         -4.94722       -11.07462         0.05042
H         -2.46947       -11.09167        -0.05514
H          0.03347       -11.08387        -0.02100
H          2.50387       -11.09454         0.14798
H          5.02546       -11.07286         0.18602
H          7.11611        -9.80987        -0.09990
H          8.36372        -7.68340         0.17166
H          9.60495        -5.53852         0.31886
H         10.84202        -3.36530         0.46100
