         280
 CSIRO Nanostructure Databank - Neutral Graphene Oxide Data Set
C         31.11863        32.02917         2.36039
C         31.21195        32.96102         1.57473
C         30.70437        36.07226         0.82049
C         30.56535        37.31318         0.91684
C         30.60102        40.40825         1.30639
C         30.55562        41.63595         1.14828
C         33.32220        29.67988         1.75600
C         32.31936        29.97790         2.46678
C         33.00873        31.67366        -0.14629
C         31.41483        30.81870         3.08249
C         32.97247        33.02571         0.01323
C         31.63677        33.70376         0.32513
C         32.97525        35.92627         0.38125
C         31.77440        35.19062         0.52030
C         32.98355        37.38754         0.51419
C         31.84707        38.05122         1.33313
C         32.91438        40.33991         0.57575
C         31.81485        39.56421         1.24921
C         32.77618        41.80613         0.20691
C         31.45864        42.57136         0.47697
C         32.75608        44.49492         0.24421
C         31.72139        43.98160         0.82373
C         35.83674        27.75655         1.57746
C         35.64248        29.06882         0.94036
C         34.36294        29.74705         0.86012
C         35.54933        31.63771        -0.38165
C         34.28441        30.89622        -0.08575
C         35.37660        33.12115        -0.68499
C         34.28868        33.75592         0.21473
C         35.31130        35.98561        -0.39745
C         34.18852        35.25889         0.00050
C         35.26795        37.44504        -0.39410
C         34.05770        38.11727         0.04203
C         35.25563        40.38863        -0.31460
C         33.94834        39.61057        -0.26015
C         35.28548        41.79726        -0.33888
C         34.12591        42.55454         0.29632
C         35.08993        44.68415        -0.82832
C         34.00268        44.02459        -0.11074
C         35.39872        46.11109        -0.75524
C         38.03237        27.55697         0.76824
C         36.88662        26.91241         1.13629
C         38.14586        29.05625         1.00417
C         36.82108        29.73345         0.60338
C         38.00295        31.83072        -0.03694
C         36.83614        31.08278         0.10910
C         37.93819        33.21102        -0.44058
C         36.66322        33.89894        -0.54458
C         37.77395        36.04943        -0.96057
C         36.55915        35.27379        -0.64848
C         37.69655        37.55084        -0.90719
C         36.41863        38.21544        -0.60767
C         37.67648        40.38022        -0.60165
C         36.44799        39.66191        -0.52883
C         37.71454        41.79130        -0.73830
C         36.48662        42.49089        -0.67929
C         37.71218        44.66900        -1.39206
C         36.42334        43.91651        -1.09347
C         37.76116        46.20319        -1.34589
C         36.45679        46.72186        -0.91269
C         40.53174        24.77607         0.49694
C         39.49034        25.42988         0.48330
C         40.57436        27.50426         0.28613
C         39.17983        26.84245         0.09805
C         40.61281        29.02014         0.31314
C         39.27745        29.72942         0.17054
C         40.58658        31.91779        -0.12958
C         39.33198        31.25253         0.46562
C         40.47390        33.33676        -0.57717
C         39.11797        33.96063        -0.50462
C         40.18425        36.14095        -0.40317
C         39.05900        35.37404        -0.64560
C         40.19623        37.55472        -0.78596
C         38.92738        38.29892        -0.61468
C         40.13718        40.42632        -0.11187
C         38.92212        39.65558        -0.54453
C         40.19506        41.82213        -0.69084
C         39.01200        42.47538        -0.91472
C         40.13523        44.66987        -0.50019
C         39.07287        43.93259        -1.36649
C         40.24103        46.20402        -0.42645
C         39.04804        46.90114        -1.16484
C         40.55652        48.82024        -1.47998
C         39.43710        48.14187        -1.49819
C         43.16423        24.79985         0.47365
C         41.82721        25.19976        -0.13211
C         42.99534        27.51097        -0.21506
C         41.82710        26.78218        -0.05270
C         42.96534        28.94490        -0.44218
C         41.81996        29.68176        -0.22215
C         42.84592        31.72695        -1.11329
C         41.76877        31.10377        -0.54337
C         42.82088        33.14391        -1.51397
C         41.45855        33.81360        -1.67361
C         42.88484        36.02508        -1.22268
C         41.79058        35.31625        -1.97641
C         42.85499        37.55292        -1.16031
C         41.48924        38.26438        -0.88623
C         42.75843        40.34877        -0.16920
C         41.46151        39.64343        -0.26847
C         42.74242        41.81782        -0.13196
C         41.55401        42.53113        -0.77890
C         42.66457        44.67809         0.09148
C         41.40085        43.93757        -0.21617
C         42.75866        46.00513        -0.17176
C         41.62829        46.63150        -1.00604
C         43.10252        48.56771        -1.07201
C         41.74749        48.20483        -1.24219
C         44.16066        25.50007         0.23099
C         45.43522        27.46661        -0.73525
C         44.33228        26.85184        -0.21465
C         45.24406        28.75691        -1.56041
C         44.26086        29.65864        -0.79217
C         45.37841        31.77771        -1.32623
C         44.08357        30.98831        -1.54753
C         45.35902        33.13803        -1.05146
C         44.11896        33.91089        -1.33947
C         45.29120        36.01276        -0.49026
C         44.07820        35.36608        -1.03087
C         45.17973        37.33540        -0.05391
C         43.87051        38.08302        -0.15102
C         45.11528        40.26299         0.55209
C         44.08329        39.62476        -0.36893
C         45.02311        41.62906         0.82052
C         43.84794        42.42222         0.40407
C         45.03879        44.56662         1.05899
C         43.68476        43.85949         0.88530
C         45.21123        45.74754         0.01797
C         44.08012        46.75334         0.20918
C         44.13003        47.96444        -0.70190
C         47.67706        27.39460        -1.67598
C         46.77178        27.01313        -0.91574
C         47.99218        28.81331        -2.07907
C         46.54754        29.61262        -2.00038
C         47.76485        31.60013        -0.86280
C         46.60862        30.98905        -1.28727
C         47.87173        33.12240        -0.83659
C         46.56103        33.89186        -0.76696
C         47.94767        35.93154        -0.36782
C         46.54767        35.26245        -0.50446
C         48.07325        37.46691        -0.13579
C         46.03284        37.99740         0.91857
C         47.36049        39.96630         1.72418
C         46.17638        39.39872         1.00111
C         47.33418        41.45939         1.99173
C         46.32671        42.32421         1.19494
C         47.62861        44.61129         1.65882
C         46.23778        43.82233         1.56434
C         47.62165        45.44148         0.41123
C         46.63610        46.14737         0.12930
C         50.44240        28.96017        -1.29002
C         49.04311        29.35906        -1.14360
C         50.29281        31.51712        -0.32756
C         49.01025        30.82052        -0.63778
C         50.17137        32.88502         0.27565
C         48.88422        33.64122         0.18479
C         50.05256        35.78715         1.07712
C         48.74899        35.10654         0.66484
C         50.06489        37.15668         1.30332
C         48.88783        38.00082         1.02847
C         49.80048        39.79593         2.46800
C         48.67192        39.20222         1.69776
C         49.83688        41.34763         2.68939
C         48.61813        42.19009         2.33588
C         50.18463        44.00995         1.82176
C         48.76063        43.67843         2.03209
C         51.46036        29.51223        -0.83995
C         52.61614        31.69001         0.09854
C         51.52699        30.86253        -0.36132
C         52.55145        32.80867         0.62544
C         51.42979        33.78914         0.46200
C         52.38962        35.70479         1.79945
C         51.19139        34.82404         1.55496
C         52.32692        36.92488         1.99195
C         51.22316        37.82163         1.90346
C         52.12036        39.86894         3.04904
C         51.11378        39.08816         2.44048
C         52.20259        41.13332         3.09808
C         51.18347        42.03032         2.79600
C         51.10335        43.38108         2.41084
O         37.61639        45.49312        -2.60528
O         49.51865        40.41910         3.75266
O         41.34745        35.79245        -3.01435
O         32.93497        40.12161         2.01128
O         48.46319        43.20127         3.38454
O         40.34622        44.06033         0.80715
O         41.06846        33.06239         0.73895
O         48.70655        29.62740         0.21002
O         49.15915        32.81274         1.34492
O         31.85960        42.14644        -0.85326
O         40.74889        28.25469         1.53498
O         37.71762        36.81657        -2.20541
O         34.93208        30.74411        -1.39105
O         43.63651        33.49917        -2.68372
O         35.39618        44.12319        -2.12425
O         40.70932        38.05741        -2.10153
O         46.93645        40.53890         3.03092
O         47.80831        38.21554        -1.06773
O         45.35746        44.52004         2.48883
O         42.13263        39.75830         1.03229
O         38.91973        29.64975        -1.22767
H         38.87764        28.69479        -1.49410
O         47.95411        35.03687         1.86999
H         48.28761        34.25728         2.37487
O         43.05219        43.70330         2.17843
H         43.73253        43.91581         2.86402
O         45.02210        45.13656        -1.26154
H         45.83097        44.63447        -1.49713
O         38.92857        26.86606        -1.32841
H         38.06024        26.43572        -1.48366
O         48.52876        28.92032        -3.36837
H         47.78380        29.02595        -4.00482
O         34.95028        27.35220         2.46533
H         34.22449        28.00544         2.57435
O         46.58868        37.19498         1.85687
H         47.00384        37.71969         2.57232
O         47.55518        45.54381         2.72292
H         47.69695        45.06940         3.57001
O         32.10756        37.70573         2.68947
H         31.71512        38.38704         3.27380
O         41.15809        35.79200         0.48748
H         40.98566        34.91909         0.90815
O         39.39565        31.50046         1.88648
H         39.98627        32.27856         2.02513
O         40.17355        46.60567         0.93767
H         40.24643        45.78920         1.49127
O         44.65329        39.88776        -1.65802
H         44.17242        39.36067        -2.34336
O         40.87540        33.30772        -2.88512
H         40.80369        34.07264        -3.50926
O         48.61940        35.79281        -1.63246
H         48.33954        36.54537        -2.20050
O         44.87067        30.01271         0.47173
H         44.97947        29.19947         1.01005
O         31.85887        30.96082        -0.32859
H         32.06723        30.00957        -0.42375
O         50.80711        34.18531         2.75193
H         50.78533        34.84294         3.47660
O         39.87837        40.63317         1.30524
H         40.75369        40.72931         1.75190
O         44.04983        47.15356         1.55768
H         43.35543        47.83223         1.68223
O         46.33642        29.96649        -3.37426
H         45.35758        30.10676        -3.50928
O         41.70900        46.06189        -2.31968
H         42.62415        46.17370        -2.65503
O         30.82373        30.53299         4.25509
H         30.19797        31.23963         4.50757
O         34.73153        33.56506         1.58949
H         34.12756        34.06190         2.18088
O         51.61450        34.51791        -0.74150
H         51.83336        33.90281        -1.47164
O         39.57556        43.92205        -2.72039
H         39.10398        44.63850        -3.21636
O         47.03946        42.46470        -0.09879
H         46.75633        41.73364        -0.69312
O         34.94588        33.26963        -2.05211
H         34.88467        32.36856        -2.44588
O         43.28771        37.74151         1.13393
H         43.74463        38.24232         1.84229
O         43.20990        37.93061        -2.50866
H         42.44668        37.65678        -3.07654
O         33.41128        39.65921        -1.61471
H         34.05614        39.23871        -2.22195
O         34.47753        42.55838         1.70882
H         33.74486        42.98090         2.20777
O         43.86819        30.75901        -2.96447
H         43.66549        31.64014        -3.36054
O         41.82163        24.83593        -1.48562
H         41.74003        23.86349        -1.55925
O         48.48882        33.36266        -2.14139
H         47.81030        33.21121        -2.83280
O         41.92179        42.63513        -2.17634
H         41.18976        43.10886        -2.64910
O         38.28364        29.22673         2.42151
H         38.64825        30.12067         2.61540
O         30.66606        33.47811        -0.69050
H         30.62511        32.51156        -0.85790
O         44.59343        28.31160        -2.75490
H         45.15722        27.63012        -3.17711
