         349
 CSIRO Nanostructure Databank - Neutral Graphene Oxide Data Set
C          1.31837         2.09465        -1.24742
C          1.28393         3.49174        -1.11923
C          2.52833         1.42742        -1.30591
C          2.46569         4.25347        -1.06938
C          1.22869         6.38029        -0.75366
C          1.20159         7.72082        -0.38081
C          2.44499         5.68504        -0.84570
C          2.37707         8.40143        -0.05591
C          1.07970        10.55782         0.38524
C          1.12830        11.91693         0.40748
C          2.29228         9.73955         0.57155
C          2.30569        12.67167         0.72766
C          1.12704        14.82464         0.34994
C          1.14984        16.19914         0.14463
C          2.27461        14.07625         0.73902
C          2.32497        16.95865         0.28292
C          2.39634        18.31431        -0.13465
C          3.75268         2.15241        -1.28503
C          3.72825         3.59644        -1.19606
C          4.97413         1.46860        -1.27453
C          4.93016         4.35039        -1.20831
C          3.67595         6.40071        -0.68166
C          3.65006         7.77783        -0.23673
C          4.90427         5.73527        -0.94183
C          4.85096         8.50070         0.01532
C          3.55922        10.44909         0.94268
C          3.51280        11.93772         1.31137
C          4.84574         9.82094         0.54414
C          4.81786        12.65949         1.05164
C          3.46711        14.83054         1.19219
C          3.50747        16.33444         0.90025
C          4.77355        14.10110         1.34980
C          4.80947        17.01503         0.74595
C          3.57930        19.01531        -0.08338
C          4.81261        18.38239         0.30141
C          6.21182         2.16072        -1.36927
C          6.21165         3.65259        -1.63361
C          7.40296         1.48620        -1.34062
C          7.46950         4.30699        -1.10064
C          6.16667         6.53171        -0.97530
C          6.18011         8.01486        -0.54154
C          7.46011         5.77450        -0.95385
C          7.31215         8.26661         0.49971
C          6.04159        10.54083         0.71121
C          6.03470        11.98728         0.89657
C          7.31903         9.76654         0.97468
C          7.27635        12.75086         0.80929
C          6.06539        14.89450         1.27121
C          6.02097        16.35050         0.96736
C          7.29812        14.14837         0.92093
C          7.25587        17.05448         0.86957
C          6.02002        19.07419         0.19318
C          7.26146        18.45815         0.51278
C          8.68966         2.19844        -1.63852
C          8.65763         3.63168        -1.13422
C          9.89733         1.41365        -1.12181
C          9.92354         4.32838        -0.98118
C          8.71439         6.43380        -0.53515
C          8.67731         7.75969        -0.00601
C          9.92560         5.74696        -0.70400
C          9.88176         8.41695         0.23444
C          8.54432        10.52783         0.48988
C          8.53262        12.02004         0.47311
C          9.83475         9.80601         0.74818
C          9.85032        12.75091         0.54269
C          8.50055        14.92637         0.84206
C          8.48265        16.33150         0.96500
C          9.80146        14.25217         0.67966
C          9.72894        17.09501         1.14461
C          8.45724        19.17643         0.35089
C          9.71778        18.65455         0.83460
C         11.18249         2.19924        -1.23336
C         11.12498         3.62918        -1.13602
C         12.38844         1.52820        -1.27217
C         12.37495         4.39788        -1.26061
C         11.18100         6.45763        -0.57154
C         11.15571         7.83485        -0.11687
C         12.37982         5.80865        -0.86168
C         12.36445         8.52542         0.07403
C         11.10256        10.56882         0.96005
C         11.10261        12.03996         0.86657
C         12.40030         9.83142         0.77181
C         12.33016        12.75066         0.87799
C         11.02639        14.96156         1.17352
C         11.04175        16.44286         1.07522
C         12.31248        14.21482         1.14782
C         12.21200        17.15823         1.04668
C         11.00961        19.25384         0.52591
C         12.20716        18.58916         0.75302
C         13.66017         2.18880        -1.22200
C         13.70128         3.66232        -1.32388
C         14.84613         1.49545        -1.11358
C         14.96000         4.38446        -0.99418
C         13.65243         6.52767        -0.97907
C         13.61680         8.01322        -0.48601
C         14.93674         5.79542        -0.96636
C         14.89940         8.71876        -0.23393
C         13.66794        10.65348         0.69083
C         13.56933        12.11826         0.75401
C         14.88280        10.03406         0.11469
C         14.78674        12.92990         0.36446
C         13.56418        14.98885         1.07644
C         13.54987        16.49051         1.32764
C         14.74569        14.34611         0.87674
C         14.66373        17.10969         0.47039
C         13.45976        19.27836         0.55897
C         14.68185        18.62018         0.50139
C         16.10975         2.17347        -1.00308
C         16.13665         3.60332        -0.86268
C         17.29542         1.40626        -1.02166
C         17.51274         4.23158        -0.87260
C         16.20460         6.56823        -0.91799
C         16.18590         8.11230        -0.77838
C         17.49905         5.79035        -0.67473
C         17.42072         8.67606        -0.07399
C         16.17503        10.82514         0.09238
C         16.07503        12.21289         0.68220
C         17.22086         9.91848         0.76025
C         17.19954        12.89053         1.07020
C         16.01145        15.05847         0.98735
C         15.99759        16.48608         0.80897
C         17.18919        14.34317         1.16354
C         17.16545        17.20477         0.67449
C         15.90862        19.28620         0.25900
C         17.14346        18.59784         0.24934
C         18.55564         1.97275        -0.66199
C         18.53029         3.32646        -0.18983
C         19.78113         1.28672        -0.60071
C         19.63691         3.76856         0.51697
C         18.63768         6.55666        -0.09764
C         18.61831         7.99609         0.04274
C         19.67400         5.97352         0.62527
C         19.83022         8.64599         0.57301
C         18.50208        10.66939         1.12101
C         18.47001        12.14733         1.36422
C         19.80589         9.99315         0.92319
C         19.78974        12.91541         1.54332
C         18.46892        15.05509         1.25052
C         18.46340        16.57573         0.97239
C         19.70880        14.32012         1.02019
C         19.67781        17.15886         0.35853
C         18.35346        19.20659        -0.14859
C         19.58210        18.50215        -0.20885
C         20.99108         1.97107        -0.26441
C         20.95447         3.28688         0.33123
C         22.23884         1.37536        -0.47582
C         22.14307         4.11033         0.49838
C         20.98540         6.49119         0.71223
C         21.07688         7.88975         0.69641
C         22.11096         5.55609         1.15692
C         22.31101         8.54420         0.98904
C         21.01959        10.75237         1.08043
C         21.03167        12.13691         1.12130
C         22.29735         9.99698         1.38685
C         22.30370        12.86093         1.08781
C         20.94369        15.08658         0.90208
C         20.84725        16.44389         0.30658
C         22.26857        14.36335         0.96253
C         21.94774        16.92552        -0.55632
C         20.74281        19.09564        -0.73607
C         21.95296        18.37276        -0.89973
C         23.43070         2.12568        -0.29607
C         23.35296         3.52044         0.13028
C         24.63631         1.47188        -0.55030
C         24.62540         4.28314         0.06490
C         23.46425         6.32709         1.08969
C         23.51628         7.82486         1.06693
C         24.73190         5.62705         0.71001
C         24.78246         8.50430         1.03932
C         23.55461        10.70311         0.88593
C         23.50428        12.19396         1.14281
C         24.83665         9.99554         1.38882
C         24.81209        12.96792         1.16353
C         23.50359        15.04909         0.33732
C         23.18621        16.10541        -0.75254
C         24.61510        14.03216         0.08901
C         24.34478        16.86252        -1.32558
C         23.13587        19.00364        -1.28275
C         24.35617        18.27471        -1.46424
C         25.98067         2.12321        -0.63637
C         25.91869         3.59747        -0.26719
C         27.03231         1.38020         0.14649
C         27.16804         4.24773         0.19509
C         25.98591         6.40330         0.50030
C         25.98861         7.81901         0.75998
C         27.17959         5.69533         0.34574
C         27.25549         8.51850         0.65050
C         26.04410        10.74679         0.84481
C         26.03186        12.10321         0.82637
C         27.27847         9.99952         0.48574
C         27.25846        12.86804         0.44435
C         25.59516        14.19169        -0.83224
C         25.47689        16.17443        -1.75334
C         27.02470        13.98885        -0.52123
C         26.74968        16.74334        -1.91302
C         25.56982        18.88474        -1.88962
C         26.75315        18.15738        -2.05473
C         28.13389         2.02424         0.63066
C         28.25129         3.47915         0.52174
C         29.15977         1.31667         1.37636
C         29.59720         4.09906         0.75478
C         28.43876         6.35868         0.57273
C         28.44674         7.80073         0.59464
C         29.56664         5.59554         0.92319
C         29.75911         8.48145         0.61486
C         28.60994        10.74150         0.39177
C         28.63944        12.26148         0.62211
C         29.83854         9.95489         0.70227
C         29.66529        12.95741        -0.28832
C         28.10118        14.64820        -1.32116
C         27.96998        15.92005        -1.91570
C         29.40419        14.02461        -1.21512
C         29.12054        16.54169        -2.53562
C         28.02119        18.85612        -2.46770
C         29.08262        17.90086        -2.96328
C         30.20235         1.96953         1.97181
C         30.40634         3.38101         1.81206
C         31.42476         4.06306         2.44976
C         30.73569         6.20834         1.46917
C         30.95026         7.64432         1.18348
C         31.63355         5.44775         2.21861
C         32.01150         8.38523         1.85681
C         31.05672        10.49788         1.07272
C         30.99859        12.59683        -0.08248
C         32.09323         9.73187         1.71602
C         32.05763        13.08681        -0.87111
C         30.48635        14.56341        -1.98018
C         30.30641        15.78610        -2.73859
C         31.78785        14.02448        -1.84682
C         31.33028        16.32494        -3.55601
C         30.12769        18.41383        -3.72593
C         31.22139        17.60448        -4.07525
O         24.34476         5.72569         2.12364
O         13.27134         9.93595         1.93854
O         13.07188         4.16803        -2.54635
O         31.39006        11.83578         1.01786
O          2.83348         9.66607         1.96149
O         22.09122        15.91757        -1.68115
O         13.55107         7.65212        -1.90794
O         10.01567        13.64773        -0.63807
O         17.14437         6.30817        -2.02414
O         21.80648        15.04485         2.15179
O         25.32197        14.81749        -2.04482
O         27.88856        10.38577        -0.81633
O          3.21807        15.79467         2.24391
O          5.50695        14.48596         2.56092
O         18.34251        11.20754         2.49802
O         19.41264         4.83832         1.36353
O          8.42463        11.20648        -0.77646
O         30.78710         7.91488        -0.24892
O          6.89673         6.37570        -2.24918
O          9.63756        18.08748         2.18671
O         11.57666        14.47189         2.43793
O         25.20156         4.36083        -1.29790
O         27.22332        14.24008         0.95971
O         10.32495        10.01510         2.11107
O         18.59312        16.07232         2.32516
O          7.43848         9.72379         2.42611
H          7.21195        10.60434         2.79328
O         19.99266        13.07884         2.97897
H         19.57706        12.29969         3.41666
O         16.64210         9.41332         1.99054
H         16.91153        10.02880         2.71276
O         24.08123        15.89019         1.37001
H         24.21562        15.31416         2.16245
O         16.24576         8.61622        -2.15690
H         16.82507         7.99196        -2.65768
O          3.33710        12.02717         2.75389
H          2.89383        11.18938         3.03167
O         21.85633         5.30687         2.55654
H         22.72864         5.12124         2.97541
O         29.01480        12.46445         1.99790
H         28.82596        13.40441         2.21071
O         24.99545        13.55603         2.47026
H         25.89697        13.95374         2.46326
O         14.34354        16.74070        -0.90235
H         15.05318        17.08296        -1.48474
O         30.34087         3.86706        -0.50320
H         31.16786         4.39278        -0.45155
O         22.32745         9.99683         2.85470
H         21.53582         9.51251         3.17219
O         26.36403         2.04919        -2.04658
H         25.89765         2.79113        -2.49433
O          6.97899         7.41464         1.61037
H          7.23720         7.89410         2.43312
O         16.58941        11.09750        -1.28013
H         16.46382        10.26809        -1.82128
O         13.85655        16.74052         2.71610
H         13.17771        16.28312         3.25769
O         17.97376         4.03498        -2.25802
H         17.46059         4.66190        -2.82018
O         14.71360        13.05170        -1.09992
H         15.35573        12.40323        -1.48947
O         28.56467        19.59766        -1.35351
H         28.77072        18.96118        -0.63828
O          6.31084         3.80289        -3.09283
H          6.43652         4.77191        -3.25188
O          8.80318         2.27979        -3.08554
H          8.00370         2.76792        -3.40436
O         24.96613        10.09008         2.82109
H         24.07551         9.94250         3.22242
O          6.43922         8.83158        -1.69728
H          6.87090         8.25345        -2.37069
O          9.68417         1.06940         0.26078
H          9.63495         1.89846         0.78001
O         23.60010        10.55881        -0.55802
H         22.82601        11.02003        -0.94398
H          0.37514         1.53187        -1.27627
H          0.30417         3.98034        -1.03978
H          2.55980         0.33100        -1.37704
H          0.27552         5.86912        -0.93740
H          0.22704         8.21488        -0.27911
H          0.12657        10.06751         0.14700
H          0.19917        12.45870         0.18356
H          0.18604        14.30090         0.13779
H          0.23933        16.69763        -0.21924
H          1.48301        18.79959        -0.50898
H          4.98217         0.37015        -1.21133
H          3.61127        20.06671        -0.40302
H          7.41316         0.39213        -1.22086
H          6.01554        20.12186        -0.14198
H          9.98412         0.45288        -1.68423
H          8.43745        20.15534        -0.15018
H         12.38381         0.42758        -1.28480
H         11.02456        20.26592         0.09403
H         14.83513         0.39515        -1.10126
H         13.43039        20.37300         0.44152
H         17.22769         0.32853        -1.23095
H         15.90343        20.37379         0.08694
H         19.84565         0.24445        -0.94520
H         18.32937        20.24751        -0.50484
H         22.30464         0.34633        -0.85725
H         20.71008        20.15050        -1.04816
H         24.58690         0.41931        -0.87004
H         23.13096        20.08833        -1.46680
H         26.93931         0.28840         0.24495
H         25.58760        19.97159        -2.05684
H         29.04604         0.23003         1.50264
H         27.78897        19.61334        -3.26015
H         30.91859         1.40773         2.59088
H         32.09282         3.53078         3.14279
H         32.50741         5.92377         2.68305
H         32.73548         7.85297         2.48850
H         32.92228        10.29281         2.16843
H         33.08062        12.73592        -0.68591
H         32.61524        14.41903        -2.44973
H         32.22388        15.73151        -3.79005
H         30.09496        19.46232        -4.05436
H         32.01885        18.00808        -4.71422
