         600
 CSIRO Nanostructure Databank - Neutral Graphene Oxide Data Set
C         23.08596        27.49213         1.60476
C         23.09890        28.83302         1.41772
C         23.13750        31.75433         1.32438
C         23.14857        33.13168         1.24018
C         23.07218        36.05238         0.93241
C         23.05424        37.42629         0.79581
C         23.00076        40.31877         0.27710
C         22.98978        41.67891         0.05144
C         22.97705        44.56416        -0.52931
C         22.98456        45.92095        -0.75903
C         25.51311        24.61754         1.43597
C         24.35801        25.29311         1.63824
C         25.39315        27.34474         0.50951
C         24.16690        26.64146         1.08748
C         25.40227        28.82464         0.46069
C         24.21211        29.55141         0.82438
C         25.28977        31.68885         0.12554
C         24.19383        30.96582         0.79381
C         25.40655        33.15867         0.27685
C         24.26225        33.86401         0.73414
C         25.44743        36.00105         0.35810
C         24.25300        35.30531         0.69076
C         25.44404        37.42615         0.28740
C         24.22584        38.14698         0.45835
C         25.43184        40.27197         0.04640
C         24.21185        39.57822         0.26865
C         25.42588        41.69053        -0.12880
C         24.19247        42.40290        -0.15825
C         25.42645        44.51767        -0.50484
C         24.18973        43.82674        -0.39625
C         25.43857        45.93190        -0.71562
C         24.21079        46.63661        -0.85156
C         25.43202        48.72297        -1.13725
C         24.23723        48.04094        -1.07105
C         27.92815        23.05876         0.87837
C         27.85791        24.45764         0.63283
C         26.67843        25.21214         0.80370
C         27.86938        27.30606         0.19119
C         26.67067        26.61032         0.48449
C         27.85717        28.76246         0.03126
C         26.59023        29.47423         0.11821
C         27.79680        31.65410        -0.49762
C         26.53092        30.89664        -0.25141
C         27.83806        33.11618        -0.29503
C         26.61085        33.83692        -0.02229
C         27.85182        35.97528        -0.16995
C         26.65209        35.27519         0.06675
C         27.88202        37.39506        -0.12945
C         26.66678        38.12659         0.04789
C         27.90207        40.24684        -0.16184
C         26.67092        39.54888        -0.01899
C         27.90661        41.67715        -0.22464
C         26.66717        42.39336        -0.25683
C         27.90412        44.51857        -0.44205
C         26.66673        43.80498        -0.40373
C         27.90824        45.93719        -0.60644
C         26.67460        46.64679        -0.77688
C         27.93823        48.76432        -1.01843
C         26.67888        48.05210        -0.98292
C         27.99243        50.15976        -1.29318
C         30.35581        23.01686         0.47663
C         29.10371        22.35721         0.74353
C         30.35226        24.40181         0.22620
C         29.04339        25.09581        -0.04654
C         30.32487        27.26638        -0.08101
C         29.09372        26.59611         0.08601
C         30.32051        28.70972        -0.52011
C         29.04217        29.43370        -0.20348
C         30.34083        31.63647        -0.26322
C         29.08632        30.88917        -0.47930
C         30.32269        33.04459        -0.30481
C         29.06683        33.76626        -0.36876
C         30.36405        35.94895        -0.32298
C         29.07765        35.24436        -0.66067
C         30.36436        37.36376        -0.29907
C         29.12326        38.09977        -0.25855
C         30.37533        40.23588        -0.25579
C         29.13443        39.52046        -0.23047
C         30.38327        41.66545        -0.20349
C         29.13626        42.38554        -0.24488
C         30.36078        44.54187        -0.21617
C         29.13517        43.81151        -0.30995
C         30.33896        45.94562        -0.29369
C         29.13471        46.65077        -0.56750
C         30.40086        48.79264        -0.77812
C         29.15369        48.07528        -0.77356
C         30.42120        50.18398        -1.06213
C         29.18720        50.84117        -1.32416
C         32.88303        20.23151         0.67865
C         31.67537        20.89183         0.69603
C         32.81944        23.01573         0.30719
C         31.59971        22.29832         0.50238
C         32.79129        24.44002         0.23724
C         31.57430        25.13200         0.16581
C         32.78577        27.32382         0.02278
C         31.54913        26.58294         0.02126
C         32.77082        28.77743        -0.01193
C         31.56533        29.48171        -0.13109
C         32.78617        31.63429         0.03204
C         31.56040        30.90927        -0.10669
C         32.78040        33.06787        -0.00823
C         31.56184        33.76938        -0.17794
C         32.80549        35.91962        -0.11304
C         31.56465        35.21586        -0.19979
C         32.80840        37.32956        -0.25770
C         31.60610        38.06907        -0.31193
C         32.82131        40.24274        -0.31720
C         31.61070        39.52012        -0.32131
C         32.84789        41.65681        -0.12989
C         31.60580        42.37416        -0.10844
C         32.81710        44.50413         0.06330
C         31.61498        43.82321        -0.05645
C         32.85939        45.96963         0.16342
C         31.55897        46.72414        -0.03132
C         32.86422        48.79177        -0.50530
C         31.62539        48.12731        -0.46287
C         32.89513        50.19285        -0.81909
C         31.67854        50.88883        -1.06700
C         32.92883        52.96121        -1.34642
C         31.73212        52.28487        -1.32608
C         35.47956        18.82635         0.68313
C         35.36944        20.19901         0.30562
C         34.10585        20.91600         0.40410
C         35.25424        23.03489        -0.35161
C         34.05452        22.30965         0.20786
C         35.31105        24.50802        -0.03670
C         34.06985        25.19037         0.47722
C         35.24024        27.36715         0.10310
C         34.00533        26.65224         0.13364
C         35.23667        28.79103         0.15055
C         34.00245        29.49897         0.12484
C         35.26022        31.62404         0.28485
C         34.01287        30.92019         0.15379
C         35.25613        33.06305         0.27088
C         34.03191        33.78079         0.11390
C         35.28737        35.90606         0.17739
C         34.04619        35.20177         0.04688
C         35.33973        37.33817        -0.03962
C         34.09700        38.01230        -0.44630
C         35.34836        40.24084        -0.20845
C         34.09604        39.54070        -0.49647
C         35.33527        41.65377        -0.04564
C         34.08782        42.34012        -0.00545
C         35.34572        44.52700         0.06384
C         34.08190        43.77968         0.41668
C         35.35089        45.94259        -0.05536
C         34.12396        46.68659        -0.08352
C         35.36404        48.77755        -0.43524
C         34.11446        48.07191        -0.31293
C         35.38022        50.18509        -0.67190
C         34.14311        50.89388        -0.86726
C         35.41615        53.00167        -1.16663
C         34.16085        52.28868        -1.12588
C         35.46078        54.40004        -1.39999
C         37.86615        18.67277         0.05744
C         36.66082        18.12428         0.67551
C         37.83247        20.19708        -0.18969
C         36.57063        20.93941         0.05169
C         37.78942        23.10234        -0.06563
C         36.54803        22.32579        -0.06415
C         37.76490        24.56059        -0.35773
C         36.47426        25.22264        -0.17632
C         37.67690        27.39753        -0.12595
C         36.46841        26.67436        -0.06081
C         37.68634        28.75794         0.19794
C         36.47208        29.48589         0.28615
C         37.74260        31.61106         0.54384
C         36.47566        30.91548         0.39344
C         37.73647        33.05833         0.57792
C         36.48776        33.76540         0.40948
C         37.73571        35.90506         0.65848
C         36.47921        35.18319         0.40500
C         37.76533        37.40900         0.45709
C         36.52083        38.06824         0.01632
C         37.78361        40.21643        -0.05347
C         36.54977        39.50981        -0.12497
C         37.80247        41.63009         0.02904
C         36.57511        42.35879         0.06794
C         37.78551        44.52961         0.12136
C         36.56249        43.81228         0.07958
C         37.81602        45.93630         0.02427
C         36.59004        46.65033        -0.13308
C         37.83802        48.77781        -0.34849
C         36.59389        48.07066        -0.30055
C         37.85098        50.18259        -0.55471
C         36.61899        50.88514        -0.73415
C         37.88075        53.00808        -1.02139
C         36.63675        52.30098        -0.97283
C         37.89353        54.41085        -1.25963
C         36.65722        55.08090        -1.44416
C         40.51875        16.02611         0.53557
C         39.29825        16.67906         0.53251
C         40.37811        18.78554        -0.10089
C         39.20312        18.04632         0.19420
C         40.33301        20.22073        -0.32691
C         39.11306        20.89383        -0.23032
C         40.25853        23.06810        -0.71793
C         39.09311        22.35962        -0.12716
C         40.18275        24.54699        -0.90458
C         38.92518        25.26284        -0.55099
C         40.20790        27.45863        -0.32822
C         38.90985        26.76821        -0.72654
C         40.23254        28.74837         0.13396
C         38.96325        29.39393         0.66071
C         40.21208        31.53610         0.89067
C         38.93756        30.89276         0.57755
C         40.20913        33.06435         0.95005
C         38.95335        33.76847         0.67366
C         40.24266        35.88590         0.53127
C         39.01404        35.18519         0.58937
C         40.25597        37.33070         0.32565
C         39.06635        38.03290         0.18197
C         40.35676        40.22466        -0.01031
C         39.04688        39.46324        -0.16083
C         40.28527        41.66873         0.27007
C         39.06483        42.32518         0.20833
C         40.31203        44.54100         0.49080
C         39.01334        43.78184         0.44149
C         40.30530        45.97900         0.16255
C         39.06955        46.66219         0.02776
C         40.31401        48.77776        -0.19542
C         39.07473        48.06919        -0.17991
C         40.32467        50.19624        -0.40578
C         39.10056        50.89225        -0.59465
C         40.35065        53.00336        -0.87273
C         39.11431        52.30175        -0.82854
C         40.36273        54.41814        -1.11191
C         39.14716        55.12564        -1.30798
C         40.39106        57.20733        -1.59084
C         39.19493        56.52868        -1.54821
C         42.96731        16.05799         0.20154
C         41.70421        16.72966         0.22594
C         42.86135        18.84160        -0.30674
C         41.64517        18.12336        -0.06152
C         42.82934        20.25451        -0.52385
C         41.57069        20.96501        -0.50612
C         42.73469        23.13291        -0.88266
C         41.55708        22.36516        -0.67142
C         42.74535        24.54697        -0.92736
C         41.47366        25.30576        -1.01441
C         42.75359        27.43274        -0.36559
C         41.47164        26.79372        -0.72401
C         42.74377        28.77912         0.07512
C         41.49108        29.47421         0.28781
C         42.71152        31.58590         0.77232
C         41.49131        30.83314         0.63214
C         42.68520        32.99804         0.85835
C         41.47982        33.77042         0.75058
C         42.78026        35.87008         0.25261
C         41.47920        35.15654         0.56293
C         42.74743        37.35201         0.53007
C         41.53319        38.05084         0.36230
C         42.74806        40.17811         0.66851
C         41.55786        39.46970         0.36774
C         42.74841        41.63887         0.64483
C         41.54277        42.35811         0.49613
C         42.78318        44.47574         0.42326
C         41.57745        43.78590         0.42982
C         42.84934        45.93830         0.05098
C         41.52309        46.66709         0.08052
C         42.80187        48.79420         0.02449
C         41.53922        48.07394        -0.03080
C         42.80345        50.20250        -0.23298
C         41.57111        50.89868        -0.44773
C         42.82759        53.01090        -0.71045
C         41.58216        52.30404        -0.67844
C         42.84026        54.42452        -0.95165
C         41.60758        55.11963        -1.15361
C         42.86140        57.21415        -1.43040
C         41.61978        56.52166        -1.39357
C         44.11827        16.73485        -0.09288
C         45.31542        18.86586        -0.58354
C         44.10806        18.14760        -0.34765
C         45.28991        20.28218        -0.74640
C         44.03070        20.95025        -0.78050
C         45.28344        23.16511        -1.18301
C         43.97536        22.37948        -1.11452
C         45.22115        24.60977        -0.90569
C         43.97365        25.28762        -0.85019
C         45.19870        27.38586        -0.29794
C         43.96237        26.70576        -0.53472
C         45.18593        28.74273         0.13860
C         43.97976        29.45366         0.33284
C         45.18355        31.55861         0.81142
C         43.97995        30.86837         0.69479
C         45.25229        32.98634         1.13031
C         43.90810        33.76757         1.12634
C         45.18463        35.88909         1.03137
C         43.97955        35.19516         0.86266
C         45.19114        37.32356         0.99360
C         43.95067        38.05018         0.81620
C         45.14093        40.20766         1.45382
C         43.93044        39.46654         0.94100
C         45.21248        41.65818         1.00630
C         43.98537        42.34724         0.75684
C         45.22333        44.48922         0.80534
C         44.00335        43.77011         0.63346
C         45.18849        45.95446         1.00624
C         43.86599        46.70568         0.89455
C         45.24169        48.81593         0.33024
C         43.99162        48.12992         0.36642
C         45.26207        50.21024        -0.00262
C         44.03756        50.90841        -0.24061
C         45.29140        53.02811        -0.52926
C         44.04788        52.31801        -0.49627
C         45.30627        54.43052        -0.77688
C         44.06805        55.13840        -0.98816
C         44.04466        56.54249        -1.23299
C         47.76297        18.84581        -0.69938
C         46.58919        18.18055        -0.70176
C         47.81706        20.32001        -0.42186
C         46.52272        21.02907        -0.78898
C         47.73157        23.18776        -0.83537
C         46.53174        22.42322        -0.90187
C         47.70037        24.58528        -0.84709
C         46.44749        25.30007        -0.73391
C         47.69796        27.39346        -0.39493
C         46.44695        26.69186        -0.46099
C         47.71754        28.77210        -0.09599
C         46.47929        29.39182         0.40990
C         47.67208        31.67006         0.38128
C         46.48065        30.87629         0.71939
C         47.67517        33.07014         0.51521
C         46.47339        33.75408         0.88476
C         47.68375        35.86549         1.05165
C         46.45495        35.15803         1.05374
C         47.67986        37.29367         1.52523
C         46.41210        38.05220         1.17433
C         47.68489        40.16710         1.46538
C         46.42005        39.43204         1.25485
C         47.68872        41.67318         1.34160
C         46.41384        42.36933         1.03578
C         47.71226        44.51809         0.86899
C         46.44287        43.79792         0.90614
C         47.73535        45.92204         0.74886
C         46.49132        46.70130         0.91376
C         47.70992        48.79888         0.38823
C         46.48028        48.13452         0.54693
C         47.72715        50.20684         0.12200
C         46.50465        50.90925        -0.06181
C         47.75219        53.02421        -0.36291
C         46.51859        52.32350        -0.32110
C         47.73709        54.42178        -0.60831
C         46.55601        55.10123        -0.80800
C         50.13738        20.41788        -1.47673
C         49.03438        21.02846        -0.97455
C         50.07111        23.23307        -1.61943
C         49.08388        22.51255        -0.70029
C         50.15461        24.68408        -1.21909
C         48.94398        25.33049        -0.90606
C         50.15433        27.46779        -0.71481
C         48.93252        26.73488        -0.68001
C         50.14116        28.88263        -0.51009
C         48.90614        29.51515        -0.20701
C         50.15448        31.77273        -0.25692
C         48.83235        30.98491        -0.16911
C         50.14365        33.15686         0.21829
C         48.91382        33.81311         0.45015
C         50.15717        35.91255         0.83844
C         48.90502        35.20376         0.79388
C         50.16017        37.33650         1.01191
C         48.94610        38.04502         1.19017
C         50.16433        40.17574         1.13301
C         48.95432        39.44349         1.25725
C         50.14205        41.61398         0.99302
C         48.96506        42.35293         1.01621
C         50.16234        44.50560         0.69499
C         48.95288        43.79163         0.82798
C         50.18810        45.92588         0.63896
C         48.95693        46.64319         0.62454
C         50.18969        48.76384         0.40326
C         48.96019        48.07273         0.48971
C         50.20594        50.19332         0.22263
C         48.97657        50.90499         0.05751
C         50.23773        52.98248        -0.19180
C         48.99274        52.31117        -0.16488
C         51.35896        21.15301        -1.73726
C         52.62016        23.30534        -1.82783
C         51.39864        22.51997        -1.70651
C         52.61258        24.70501        -1.56620
C         51.37492        25.39158        -1.25638
C         52.61638        27.51772        -0.96912
C         51.38270        26.79079        -0.98283
C         52.61929        28.91479        -0.67679
C         51.38133        29.61590        -0.50209
C         52.62671        31.71082        -0.06570
C         51.40705        31.01226        -0.26249
C         52.62168        33.11655         0.21608
C         51.38664        33.82210         0.38285
C         52.63077        35.92788         0.73456
C         51.38273        35.22486         0.66212
C         52.63236        37.33537         0.91530
C         51.39661        38.04929         1.00111
C         52.65574        40.16948         1.12974
C         51.39657        39.46884         1.06679
C         52.68310        41.59343         1.01334
C         51.42709        42.26772         0.67918
C         52.70236        44.48829         0.77269
C         51.43798        43.78731         0.54260
C         52.68476        45.92780         0.73623
C         51.43568        46.63351         0.59659
C         52.67644        48.76059         0.46551
C         51.43377        48.04733         0.49227
C         52.69104        50.18045         0.33612
C         51.43785        50.89643         0.18361
C         51.42252        52.29631        -0.01885
C         55.02716        23.40148        -2.19806
C         53.84349        22.68424        -2.15698
C         55.06144        24.77899        -1.88662
C         53.83590        25.43981        -1.57231
C         55.06988        27.55680        -1.18473
C         53.84066        26.84026        -1.24433
C         55.08110        28.93614        -0.81693
C         53.85453        29.62072        -0.56942
C         55.09753        31.70308        -0.05219
C         53.86890        31.01175        -0.21725
C         55.09935        33.10861         0.25194
C         53.86102        33.81396         0.35535
C         55.10351        35.93128         0.70342
C         53.86410        35.22223         0.60494
C         55.10700        37.33069         0.93394
C         53.87346        38.03863         1.03389
C         55.10949        40.17027         1.61562
C         53.85864        39.44772         1.20947
C         55.13668        41.62396         1.20025
C         53.90669        42.31174         1.00209
C         55.15319        44.45092         0.97611
C         53.90700        43.75897         0.89038
C         55.15728        45.94111         1.19983
C         53.89317        46.63863         0.77324
C         55.15477        48.75478         0.52642
C         53.91084        48.05092         0.59397
C         55.13046        50.15183         0.43372
C         53.92707        50.85041         0.35410
C         57.54487        24.89458        -2.18279
C         56.30752        25.51590        -1.86063
C         57.53487        27.60421        -1.40089
C         56.30332        26.88588        -1.48438
C         57.55025        28.97402        -0.98796
C         56.32097        29.64345        -0.69841
C         57.57829        31.67639        -0.11724
C         56.33672        31.00575        -0.27995
C         57.60380        33.02895         0.56038
C         56.32520        33.81468         0.41828
C         57.59500        35.93793         0.65416
C         56.34189        35.20652         0.60143
C         57.60845        37.32568         0.85487
C         56.36185        38.05996         1.04083
C         57.65354        40.14971         1.59991
C         56.37368        39.41815         1.29053
C         57.61871        41.62120         1.21839
C         56.36531        42.31131         1.13129
C         57.62081        44.45802         0.88184
C         56.36230        43.75068         1.00094
C         57.62059        45.87803         0.66854
C         56.41088        46.62249         0.71840
C         57.64515        48.65381         0.18718
C         56.41462        48.00615         0.49269
C         58.73427        25.58850        -2.11906
C         59.98203        27.66972        -1.62098
C         58.75710        26.94881        -1.71658
C         59.99543        28.98014        -1.20999
C         58.78874        29.66555        -0.87474
C         60.02584        31.76032        -0.28209
C         58.79163        31.02710        -0.41272
C         60.04009        33.10427        -0.01088
C         58.84354        33.83284         0.25684
C         60.04191        35.99424         0.30649
C         58.83325        35.22650         0.41404
C         60.05221        37.34145         0.51263
C         58.85243        38.05816         0.84277
C         60.08504        40.20019         1.07251
C         58.88573        39.43710         1.10745
C         60.06252        41.57322         1.12449
C         58.82880        42.31191         1.09221
C         60.05462        44.45745         0.63037
C         58.83715        43.74847         0.87316
C         60.06000        45.80842         0.38568
C         58.84457        46.55192         0.39639
C         58.82888        47.94914         0.15148
O         28.43597        31.24479        -1.76716
O         37.66205        36.82975         1.80642
O         39.84333        39.83797        -1.33999
O         39.58166        44.21840         1.73282
O         38.62643        22.85927         1.16966
O         40.18617        32.25294         2.17880
O         47.67836        41.02533         2.68178
O         41.45142        26.28059        -2.11966
O         45.87567        46.38623         2.23468
O         37.66042        19.22635        -1.28078
O         34.17559        38.72509        -1.72544
O         39.97660        23.63269        -2.05040
O         32.10854        46.50020         1.32413
O         51.45656        42.91148        -0.64755
O         46.66176        29.87389         1.79463
O         25.51134        31.21478        -1.25274
O         44.60595        22.72629        -2.39822
O         49.31076        31.57042        -1.43758
O         24.36864        26.74003        -0.36102
O         44.57008        33.35742         2.36425
O         30.36202        28.64775        -1.99540
H         30.00546        29.49597        -2.34042
O         38.98582        29.11527         2.11654
H         39.51628        29.81947         2.55033
O         47.93894        20.45270         1.05260
H         47.17394        19.98220         1.44839
O         35.08975        22.97768        -1.82191
H         35.06320        22.03123        -2.08035
O         43.31161        46.79848         2.22408
H         44.06849        46.93871         2.83818
O         42.96276        35.74073        -1.21366
H         42.26523        36.28179        -1.64255
O         55.18074        46.08546         2.67814
H         55.21788        47.04657         2.87281
O         43.34998        45.98793        -1.31885
H         42.70062        45.54080        -1.90073
O         29.00047        35.32143        -2.14074
H         28.26015        34.74325        -2.42595
O         57.76795        40.14478         3.07278
H         56.87811        40.41220         3.41722
O         28.79982        24.87396        -1.49729
H         27.99263        25.37886        -1.73707
O         49.48628        23.19661        -2.95521
H         50.10727        23.63914        -3.57034
O         49.52972        22.68755         0.66751
H         49.05012        22.01897         1.21151
O         55.04669        40.21724         3.11353
H         54.84681        39.30586         3.41996
O         57.69120        32.71952         2.01002
H         58.52639        32.22206         2.14400
O         34.07495        43.74512         1.90476
H         33.83454        44.64571         2.21523
O         44.97990        40.28257         2.91727
H         45.81276        40.68975         3.26101
O         34.22561        25.16260         1.95671
H         35.03060        25.68059         2.17512
O         47.65848        37.20247         2.99397
H         47.54451        38.11149         3.34639
O         38.78697        27.01200        -2.16405
H         39.61444        26.66310        -2.58039
H         22.25630        27.01392         2.14617
H         22.24275        29.41249         1.78722
H         22.26879        31.27395         1.79267
H         22.28423        33.67834         1.63938
H         22.13748        35.53818         1.19145
H         22.10804        37.95778         0.96202
H         22.04369        39.80614         0.44042
H         22.02457        42.20208         0.04958
H         22.01123        44.04623        -0.46087
H         22.03704        46.46825        -0.86735
H         25.60206        23.59943         1.83776
H         23.54087        24.84173         2.22017
H         25.40890        49.80876        -1.29869
H         23.28656        48.58237        -1.18148
H         27.02530        22.50850         1.17676
H         27.06835        50.71516        -1.49976
H         29.09042        21.27401         0.92263
H         29.17024        51.91471        -1.55223
H         32.88695        19.14382         0.82892
H         30.75943        20.30753         0.85644
H         32.91483        54.03963        -1.54829
H         30.80878        52.84802        -1.51216
H         34.59503        18.32347         1.09829
H         34.53351        54.96779        -1.54789
H         36.70088        17.13958         1.16169
H         36.63534        56.16289        -1.62617
H         40.57156        14.95225         0.76401
H         38.38523        16.11000         0.75471
H         40.40664        58.29085        -1.77698
H         38.26601        57.09231        -1.70398
H         42.99740        14.98036         0.41809
H         42.86387        58.29770        -1.61710
H         45.06856        16.18536        -0.10548
H         44.98350        57.11035        -1.26607
H         48.70359        18.28247        -0.77523
H         46.59696        17.08877        -0.82619
H         48.67656        54.98776        -0.64523
H         46.60009        56.18166        -0.99559
H         50.16987        19.32745        -1.61722
H         50.28191        54.06695        -0.35289
H         52.27246        20.56080        -1.89188
H         52.36248        52.86162        -0.05321
H         55.95034        22.86829        -2.45915
H         53.86750        21.61087        -2.38835
H         56.06713        50.72438         0.41782
H         53.96928        51.94490         0.28599
H         57.56810        23.84089        -2.48991
H         57.66183        49.73188        -0.02032
H         59.68023        25.08807        -2.37131
H         60.92242        27.15923        -1.87425
H         60.95982        29.50010        -1.14322
H         60.98124        31.25708        -0.47620
H         61.00729        33.62436        -0.03040
H         60.98925        35.49216         0.07234
H         61.00611        37.87931         0.43921
H         61.05793        39.69990         0.97090
H         61.01959        42.10979         1.10479
H         61.01049        43.91830         0.61520
H         61.00560        46.33207         0.18415
H         59.77380        48.46589        -0.06992
