         598
 CSIRO Nanostructure Databank - Neutral Graphene Oxide Data Set
C         23.28395        69.69680        -2.51327
C         23.29179        71.11859        -2.61964
C         22.10923        71.85641        -2.89532
C         23.32992        73.95018        -2.70574
C         22.14333        73.24939        -2.93254
C         25.59181        65.42905        -1.39931
C         25.58540        66.82909        -1.71108
C         24.45020        67.52616        -2.08745
C         25.70656        69.64405        -2.27700
C         24.47519        68.94875        -2.33389
C         25.70375        71.08789        -2.03750
C         24.49396        71.84101        -2.36939
C         25.77658        73.95897        -2.24667
C         24.53400        73.25676        -2.42048
C         27.76246        61.07963        -0.52238
C         27.49692        62.46335        -0.25771
C         26.71330        63.31347        -1.01727
C         27.89226        65.55946        -0.46760
C         26.70076        64.75595        -0.90819
C         28.06774        66.92049        -1.12097
C         26.91410        67.44976        -1.91126
C         28.29140        69.65725        -2.23206
C         26.96822        68.92948        -2.29228
C         28.30707        71.12752        -2.05033
C         27.01528        71.83578        -1.88583
C         28.22835        73.98691        -1.90713
C         26.99247        73.30738        -2.05681
C         30.47321        57.00230        -0.14244
C         30.39090        58.40209        -0.06720
C         29.13172        59.03361        -0.24017
C         30.27824        61.19384        -0.27636
C         28.99287        60.43030        -0.24703
C         30.24565        63.20404         1.38607
C         29.09725        63.78363         0.82894
C         30.40457        65.61922        -0.03868
C         29.14169        64.95601         0.07277
C         30.52331        66.93676        -0.65964
C         29.42117        67.53215        -1.24457
C         30.81496        69.63996        -1.64195
C         29.54795        68.87023        -1.87740
C         30.77967        71.16496        -1.73184
C         29.46916        71.83994        -1.85396
C         30.61827        73.98700        -1.35314
C         29.43333        73.29136        -1.69206
C         33.02409        52.79487        -0.32798
C         32.95432        54.19693        -0.19693
C         31.74271        54.90149        -0.17968
C         32.90062        57.05512         0.26579
C         31.69695        56.30990        -0.02712
C         32.85196        58.47374         0.44269
C         31.59210        59.18206         0.22941
C         32.71978        61.38772         0.58329
C         31.50926        60.56640         0.27376
C         32.67798        62.79137         1.17458
C         31.49352        63.66824         0.96171
C         32.95130        65.49121         0.08922
C         31.57651        64.93481         0.36628
C         32.95249        66.98838        -0.04289
C         31.81752        67.63594        -0.55600
C         33.09101        69.76847        -0.64863
C         31.91731        69.01451        -0.90212
C         33.08121        71.20950        -0.83282
C         31.92628        71.89378        -1.16619
C         32.95647        74.06855        -0.60409
C         31.84034        73.34261        -1.06618
C         35.40230        48.49781        -0.10224
C         35.37098        49.88997         0.03762
C         34.23123        50.65115        -0.26265
C         35.44936        52.74236         0.21395
C         34.21726        52.06323        -0.13787
C         35.50920        54.21443         0.14120
C         34.20256        54.97599        -0.09346
C         35.33101        57.05704         0.69346
C         34.14328        56.38320         0.32793
C         35.28209        58.47028         0.92445
C         34.04020        59.16624         0.73756
C         35.15928        61.33128         1.47695
C         34.01998        60.64633         0.78616
C         35.24752        62.80184         1.42877
C         33.96017        63.52217         1.37255
C         35.17404        65.66212         1.27582
C         34.01185        64.96121         1.04118
C         35.23087        67.05721         0.92042
C         34.15211        67.71172         0.24054
C         35.40109        69.86346         0.29203
C         34.21456        69.11618        -0.04963
C         35.54180        71.28428        -0.16063
C         34.37072        72.00311        -0.83211
C         35.28325        74.19552         0.09880
C         34.20224        73.44604        -0.35829
C         37.80260        44.21695         0.33425
C         37.77854        45.60112         0.28536
C         36.59301        46.35669         0.05579
C         37.86057        48.48149         0.25669
C         36.59231        47.75234         0.11977
C         37.87198        49.90066         0.40825
C         36.55032        50.55311         0.70850
C         37.82058        52.70581         0.87053
C         36.59420        52.04019         0.53952
C         37.73149        54.11846         1.27082
C         36.58531        54.91608         0.83435
C         37.73373        57.04403         1.30605
C         36.55903        56.32868         0.95066
C         37.72417        58.45901         1.33811
C         36.48970        59.15433         1.23830
C         37.69931        61.35842         1.68013
C         36.45482        60.57599         1.62156
C         37.67280        62.76622         1.79576
C         36.40256        63.47645         1.71655
C         37.65545        65.66426         1.91131
C         36.31349        64.96231         2.04480
C         37.59535        67.12538         1.98610
C         36.32071        67.86816         1.44781
C         37.58583        70.05576         1.51030
C         36.40880        69.27725         1.03214
C         37.67098        71.51740         1.29141
C         36.63833        72.12842         0.40341
C         37.63628        74.33493         0.86453
C         36.55108        73.61254         0.44070
C         40.24998        39.92353         0.61235
C         40.23752        41.34165         0.72372
C         39.03352        42.07014         0.55651
C         40.25027        44.16429         0.76229
C         39.01797        43.47689         0.56197
C         40.29566        45.64012         0.83328
C         39.01993        46.36476         0.54778
C         40.32416        48.55072        -0.13117
C         39.06404        47.79555         0.22822
C         40.33773        49.93634         0.48731
C         39.08279        50.60331         0.61522
C         40.28905        52.73737         1.12285
C         39.04409        52.02077         0.93402
C         40.28473        54.13220         1.35190
C         39.02935        54.84056         1.63719
C         40.21833        57.02099         1.15662
C         39.00238        56.35849         1.80069
C         40.21586        58.50828         1.47095
C         38.95900        59.20608         1.50740
C         40.13411        61.37538         1.76385
C         38.92838        60.63188         1.64000
C         40.14268        62.78901         1.82182
C         38.89725        63.51210         1.87717
C         40.15907        65.67533         2.10223
C         38.85754        64.95369         1.95635
C         40.17004        67.18413         2.10745
C         38.87640        67.91104         2.05544
C         40.15953        70.04636         1.29353
C         38.87954        69.30566         1.50847
C         40.15823        71.53540         1.22709
C         38.98035        72.22419         1.25290
C         40.16731        74.39813         0.71724
C         38.93446        73.73490         1.36632
C         42.57298        35.58605        -0.08234
C         42.64996        37.09190         0.11823
C         41.47032        37.78933         0.28728
C         42.70237        39.89488         0.57393
C         41.46333        39.20524         0.50018
C         42.72342        41.27950         1.07519
C         41.46125        42.04554         0.97135
C         42.66217        44.22911         1.26765
C         41.44466        43.45095         0.94705
C         42.74186        45.66031         0.85247
C         41.59004        46.34244         0.62582
C         42.85466        48.49359         0.45483
C         41.66418        47.70265        -0.07823
C         42.81289        49.89942         0.66545
C         41.55251        50.63179         0.69413
C         42.77667        52.74655         1.18627
C         41.53812        52.03077         0.99896
C         42.77959        54.15994         1.38869
C         41.51815        54.88393         1.39180
C         42.72842        57.00029         1.80059
C         41.49009        56.27243         1.50273
C         42.70785        58.51689         1.84541
C         41.39971        59.19313         1.65956
C         42.70923        61.39183         1.58093
C         41.38569        60.63501         1.88322
C         42.56712        62.80468         1.25859
C         41.39183        63.47406         1.57005
C         42.54790        65.69901         1.09562
C         41.42479        64.94400         1.75047
C         42.70656        67.15084         1.42811
C         41.46027        67.92529         1.84547
C         42.63192        70.03825         1.30181
C         41.44697        69.36382         1.54788
C         42.64453        71.49920         1.16312
C         41.43979        72.22640         1.14520
C         42.66792        74.33126         1.00052
C         41.46272        73.65004         0.99681
C         45.11337        32.93233        -1.22556
C         44.01515        33.55803        -0.58478
C         45.07451        35.71248        -0.11938
C         43.92451        34.92173        -0.25073
C         45.11064        37.13504        -0.22624
C         43.88721        37.81676         0.05384
C         45.15566        39.93242         0.14010
C         43.91786        39.22177         0.29354
C         45.19128        41.44007         0.32865
C         44.05248        41.99290         1.21641
C         45.14003        44.32518         1.52914
C         43.93253        43.48313         1.48126
C         45.27468        45.58609         1.07875
C         44.08046        46.26691         0.41264
C         45.26887        48.47151         0.81198
C         44.06075        47.77826         0.60410
C         45.24593        49.87323         0.91288
C         44.02848        50.60111         0.91545
C         45.22585        52.76033         1.33326
C         44.01823        52.03818         1.13918
C         45.23339        54.15422         1.51903
C         44.00925        54.87286         1.52083
C         45.18712        57.07596         1.58994
C         44.02035        56.31769         1.62161
C         45.17112        58.51536         1.41544
C         43.95568        59.23182         1.49693
C         45.07982        61.28982         0.78308
C         43.92229        60.62245         1.21615
C         44.96814        62.69293         0.28687
C         43.69070        63.45368         0.53908
C         44.97889        65.66856         0.16773
C         43.67708        64.95355         0.44191
C         45.00458        67.17613         0.33035
C         43.82223        67.91402         0.85543
C         45.07321        70.04607         0.73425
C         43.83455        69.28718         1.00630
C         45.11800        71.49544         1.05562
C         43.88508        72.20479         1.09784
C         45.16185        74.31255         1.08752
C         43.91563        73.63745         1.08448
C         46.29568        33.53697        -1.64110
C         47.40751        35.82642        -1.75527
C         46.70765        34.80631        -1.13515
C         47.40406        37.21264        -1.32190
C         46.27803        37.85250        -0.62248
C         47.34308        40.11293        -1.00282
C         46.24999        39.27516        -0.44711
C         47.57927        41.44388        -0.41697
C         46.61858        41.97757         0.46658
C         47.94452        44.06814         0.55281
C         46.95889        43.20606         1.06460
C         47.99172        45.50229         1.09136
C         46.60788        46.26343         1.19452
C         47.79881        48.45138         0.53096
C         46.56996        47.74556         1.02205
C         47.74862        49.94420         0.51136
C         46.53068        50.57920         1.12444
C         47.79230        52.80152         1.24343
C         46.51821        52.04882         1.36844
C         47.79779        54.21481         1.49647
C         46.50837        54.86966         1.78467
C         47.73862        57.13206         1.48501
C         46.48747        56.40527         1.77085
C         47.66481        58.55368         1.19945
C         46.38498        59.22606         1.13329
C         47.54099        61.34398         0.48745
C         46.32734        60.60513         0.77582
C         47.51470        62.73698         0.23150
C         46.23780        63.44883        -0.14404
C         47.46202        65.61788         0.30519
C         46.25821        64.92627         0.24682
C         47.47571        67.05906         0.54470
C         46.31791        67.79099         0.58081
C         47.59842        69.92850         1.09064
C         46.34399        69.26539         0.65161
C         47.59415        71.42287         1.24644
C         46.33211        72.17510         1.10019
C         47.66543        74.25480         1.15405
C         46.38550        73.60758         1.12553
C         48.48829        37.96983        -1.75022
C         49.79295        40.16046        -1.75022
C         48.53201        39.42505        -1.66914
C         49.87515        41.49779        -1.40667
C         48.76322        42.15731        -0.72295
C         49.97600        44.35725        -0.93125
C         48.88943        43.50912        -0.31922
C         50.28135        45.58126        -0.06795
C         49.07779        46.34037         0.39789
C         50.30455        48.51692         0.05754
C         49.07865        47.69985         0.39353
C         50.26296        49.95349         0.53171
C         49.00484        50.78777         0.30303
C         50.21948        52.84141         1.27181
C         48.96942        52.10130         1.08058
C         50.24228        54.30834         1.20647
C         48.98396        54.97719         1.41860
C         50.22062        57.15668         1.46131
C         48.94087        56.42248         1.46979
C         50.14458        58.63129         1.15610
C         48.83510        59.28096         0.93802
C         49.99054        61.40315         0.30886
C         48.79610        60.67027         0.57564
C         49.94930        62.77095         0.04060
C         48.71183        63.46612         0.07524
C         49.93792        65.60980        -0.04963
C         48.72724        64.91900         0.07872
C         50.02022        67.02714         0.35418
C         48.77224        67.75500         0.73440
C         50.05624        69.91695         0.82060
C         48.85018        69.22838         0.80352
C         50.04760        71.36169         1.00427
C         48.88494        72.10341         1.10819
C         50.14691        74.22073         1.12897
C         48.89377        73.55804         1.13835
C         51.10025        42.22138        -1.60153
C         52.42003        44.28004        -1.57757
C         51.22166        43.57573        -1.31074
C         52.59117        45.63962        -1.24140
C         51.54833        46.28898        -0.39291
C         52.95070        48.36244        -0.46258
C         51.58165        47.78092        -0.32156
C         53.15600        49.65451         0.10139
C         51.35599        50.61002         0.96616
C         52.57992        52.83729         0.40063
C         51.48963        52.08430         1.10647
C         52.68525        54.28361         0.68284
C         51.48798        54.95947         1.08045
C         52.75063        57.13329         0.72068
C         51.53139        56.42431         1.25683
C         52.59495        58.53593         0.23241
C         51.31702        59.25656         0.47001
C         52.57269        61.42820         0.05267
C         51.31240        60.74344         0.44164
C         52.48109        62.79403        -0.52791
C         51.15405        63.49326        -0.44237
C         52.39620        65.64500        -0.50858
C         51.18201        64.96092        -0.36323
C         52.42447        67.12314        -0.52938
C         51.17343        67.85900        -0.08899
C         52.51293        69.88403         0.33193
C         51.28450        69.24002         0.41909
C         52.60904        71.24615         0.92526
C         51.34389        72.03726         1.20513
C         52.60074        74.20077         1.07268
C         51.38525        73.52317         1.15979
C         53.75450        46.34506        -1.57586
C         55.27509        48.34788        -1.33601
C         53.97378        47.71079        -1.19766
C         55.38350        49.74454        -1.41193
C         53.68700        50.69853        -0.60064
C         55.01282        52.81577        -0.49825
C         53.70963        52.14848        -0.33659
C         55.02407        54.21007        -0.26835
C         53.85863        54.94739         0.20869
C         55.01367        57.08012        -0.31951
C         53.89392        56.37149         0.16876
C         55.01707        58.54280        -0.39502
C         53.83683        59.28209        -0.09916
C         54.97551        61.40468        -0.59342
C         53.81225        60.66941        -0.23102
C         54.95742        62.83664        -0.74250
C         53.72752        63.56861        -0.62192
C         54.87152        65.72925        -0.89963
C         53.66089        64.97004        -0.67577
C         54.92089        67.12662        -0.79414
C         53.70510        67.84808        -0.46628
C         54.94392        69.97747        -0.38223
C         53.69777        69.20568        -0.15329
C         55.02568        71.41946         0.07543
C         53.90034        71.99226         0.86050
C         55.12425        74.21282         0.58541
C         53.90400        73.54860         1.01125
C         56.39170        50.66874        -1.02557
C         57.44408        52.83483        -0.79633
C         56.23537        52.08050        -0.79657
C         57.46763        54.23400        -0.74901
C         56.22427        54.94896        -0.54039
C         57.40695        57.04551        -1.09958
C         56.19514        56.34805        -0.62567
C         57.39110        58.54828        -1.16904
C         56.17039        59.26219        -0.75869
C         57.38768        61.39865        -1.12033
C         56.18038        60.68425        -0.81470
C         57.34534        62.79704        -1.32058
C         56.13233        63.51267        -1.14922
C         57.33608        65.75471        -1.64963
C         56.04789        64.97354        -1.38582
C         57.35987        67.17270        -1.26192
C         56.18490        67.84875        -0.93459
C         57.41044        69.98981        -0.57334
C         56.21722        69.27420        -0.63899
C         57.48786        71.34519        -0.05987
C         56.33621        72.05409         0.27348
C         57.58384        74.13196         0.63630
C         56.35324        73.49214         0.54546
C         58.69289        54.96143        -0.86164
C         59.89612        57.12325        -1.06143
C         58.71275        56.35420        -0.99122
C         59.90383        58.53928        -1.12795
C         58.66613        59.28354        -1.13956
C         59.88440        61.41240        -1.27304
C         58.64084        60.67423        -1.16782
C         59.87465        62.77295        -1.48078
C         58.60309        63.49311        -1.69511
C         59.93425        65.71583        -1.58594
C         58.63530        65.00521        -1.80317
C         59.93283        67.16111        -1.41860
C         58.64231        67.88929        -1.42355
C         59.95762        70.00284        -0.74996
C         58.66166        69.37274        -1.05649
C         59.95387        71.36742        -0.29492
C         58.77781        71.99372         0.06987
C         60.09843        74.04763         0.72711
C         58.80936        73.29669         0.83991
C         61.11910        59.27089        -1.11500
C         62.34798        61.40803        -1.14003
C         61.14088        60.67345        -1.18871
C         62.38138        62.80172        -1.33419
C         61.14346        63.49139        -1.87460
C         62.40308        65.67737        -1.63564
C         61.10429        64.98437        -1.59860
C         62.40848        67.19437        -1.46324
C         61.11932        67.88513        -1.26956
C         62.43097        69.95133        -0.64877
C         61.15227        69.29187        -0.92308
C         62.47717        71.31640        -0.32891
C         61.22958        72.15859        -0.47876
C         62.51977        74.07303         0.51267
C         61.26155        73.45237         0.30095
C         63.56416        63.51931        -1.15042
C         64.80932        65.63211        -1.05459
C         63.63166        64.93266        -1.28344
C         64.84284        67.05808        -0.92688
C         63.65369        67.82228        -0.99281
C         64.90264        69.84148        -0.37615
C         63.66013        69.19876        -0.66135
C         64.92524        71.23579        -0.05463
C         63.71047        71.96207        -0.02677
C         64.95288        73.97819         0.68270
C         63.72973        73.36396         0.35647
C         66.06845        67.71902        -0.63380
C         67.45927        69.74289        -0.22975
C         66.11185        69.08166        -0.40259
C         67.39471        71.16884         0.25730
C         66.16910        71.88132         0.27813
C         67.39637        73.88182         1.03125
C         66.17049        73.26052         0.66148
C         68.57518        71.80464         0.63872
C         68.57393        73.15821         1.03020
O         51.47533        67.70724        -1.50431
O         58.57325        68.92910        -2.45586
O         38.18704        54.25606         2.67872
O         42.71998        57.74683         3.08918
O         58.61336        64.18056        -3.01467
O         33.71989        61.29314        -0.49754
O         49.66369        67.16724         1.76829
O         46.52529        55.64024         3.02399
O         51.63621        62.91642        -1.71880
O         26.28376        71.39938        -0.68534
O         35.52851        60.78247         2.76886
O         46.67098        47.17184         2.36783
O         54.69734        71.10863        -1.31521
O         51.38375        45.54353         0.88061
O         43.55496        41.24745         2.33949
O         41.98892        47.35961        -1.42543
O         47.44192        49.19618        -0.70200
O         39.54873        67.73441         3.33098
O         39.50768        46.18405         1.95654
O         52.57749        56.91501         2.15724
O         43.93248        62.79846        -0.76117
O         29.15057        69.07650        -3.26367
O         52.51245        49.90089         1.32941
O         52.16473        61.36829         1.47175
O         46.21521        43.67420         2.15029
O         62.54905        66.57184        -2.78526
O         34.68732        72.12467        -2.24800
O         47.42362        40.05848        -2.44971
O         54.19345        50.38865        -1.85883
O         42.27586        61.08684         2.94311
O         49.44789        44.85858        -2.14427
O         50.33606        58.16509         2.51992
O         47.53656        70.51908         2.43037
O         31.22429        70.33791        -2.85428
O         46.67357        51.07253         2.49058
O         33.14971        63.01107         2.53767
O         56.41754        65.43343        -2.73206
O         54.25642        72.57350         2.09691
O         52.54958        52.70780        -1.07495
O         51.13082        52.46355         2.45554
O         41.08712        65.21295         3.14479
O         42.47622        67.51367         2.81810
O         36.58154        67.64885         2.89703
O         50.69182        48.39448        -1.35070
O         44.87827        42.05635        -1.02842
O         42.55518        65.45942        -0.34854
O         43.10344        43.86487         2.63273
O         27.06655        67.84022        -3.28612
O         27.58817        66.79123         0.27434
O         37.28762        70.99382         2.61084
O         39.45894        69.36630         0.15695
O         51.57396        58.64874        -0.84251
O         52.07039        71.35490         2.28235
O         44.88148        66.56232        -0.99386
O         57.20949        57.72980        -2.38902
O         35.15646        54.75382        -1.18320
O         30.34200        62.24877        -0.91566
O         45.72898        69.81515        -0.57376
O         46.27920        35.07486         0.18783
O         27.95973        62.97596         0.97785
O         44.20591        46.01244        -1.00424
H         43.42787        46.49056        -1.43254
O         35.97349        65.02138         3.45496
H         36.01611        65.97032         3.72155
O         58.75639        72.86987         2.26684
H         59.56641        72.34530         2.44435
O         40.24970        75.74922         1.15676
H         40.06831        75.74039         2.12226
O         41.71900        35.28724        -1.19817
H         42.11772        35.67223        -2.00503
O         33.35648        64.95680        -1.22094
H         34.12490        65.47632        -1.53841
O         36.35861        50.33391         2.15559
H         36.30309        49.36472         2.30099
O         49.00790        51.22029        -1.08010
H         48.74430        50.43775        -1.62000
O         39.08378        56.63522         3.21419
H         38.54629        55.95309         3.67702
O         68.30405        68.95496         0.62315
H         67.91557        68.95433         1.52165
O         30.11769        62.05848         2.10427
H         29.15381        61.86628         2.16798
O         39.02396        74.04923         2.79000
H         38.32451        73.54339         3.25640
O         61.23237        63.37113        -3.32846
H         60.38075        63.72115        -3.68904
O         43.57781        41.56069        -1.46582
H         43.73365        41.44835        -2.43559
O         40.13042        48.89472        -1.53714
H         40.84055        48.35528        -2.01465
O         46.25452        63.45847        -1.59752
H         45.31987        63.55812        -1.89614
O         36.77685        71.52400        -0.93624
H         35.67157        72.14533        -2.31600
O         48.48591        45.36843         2.44046
H         48.10352        46.10903         2.96845
O         40.03201        56.88079        -0.28305
H         40.77289        57.32728        -0.74301
O         61.20940        72.57478        -1.88683
H         61.15358        71.76379        -2.43635
H         23.33838        75.04828        -2.75284
H         25.76622        75.05698        -2.31640
H         28.23498        75.08695        -1.89534
H         30.56930        75.08235        -1.25960
H         32.85229        75.14818        -0.41537
H         35.15232        75.27815         0.25184
H         37.56026        75.43204         0.91995
H         40.02368        74.41108        -0.39769
H         42.66121        75.42797         0.91506
H         45.17257        75.41249         1.06295
H         47.68909        75.35503         1.17540
H         50.16664        75.32086         1.12240
H         52.57953        75.28770         0.90028
H         55.13492        75.30716         0.47603
H         57.63776        75.22089         0.77885
H         60.15475        75.02121         1.24022
H         62.54847        75.08970         0.93379
H         64.95761        75.03606         0.98492
H         67.39159        74.94135         1.32432
H         22.32403        69.16428        -2.58286
H         21.16708        71.31978        -3.07479
H         21.22077        73.80672        -3.14750
H         24.68525        64.85030        -1.63320
H         23.47132        67.02575        -2.05184
H         26.98554        60.50457        -1.05481
H         26.12132        62.87670        -1.83716
H         29.55786        56.42830        -0.35049
H         28.24126        58.39705        -0.35927
H         32.09284        52.23793        -0.51087
H         30.79888        54.35193        -0.31213
H         34.49425        47.96378        -0.42127
H         33.33005        50.14182        -0.63650
H         36.87047        43.65441         0.17581
H         35.64568        45.82465        -0.11719
H         39.29629        39.38513         0.50956
H         38.09720        41.51943         0.38378
H         42.06933        35.13552         0.81640
H         40.51224        37.25010         0.26360
H         44.92309        31.91435        -1.60006
H         43.07966        32.97831        -0.55429
H         46.89279        33.05170        -2.42731
H         47.95932        35.60060        -2.68031
H         49.35250        37.45316        -2.19466
H         50.68743        39.62991        -2.11073
H         51.96588        41.67387        -2.00932
H         53.25010        43.74938        -2.07282
H         54.54377        45.82313        -2.13801
H         56.17714        47.72031        -1.28539
H         57.42294        50.28833        -0.94920
H         58.39259        52.29904        -0.95302
H         59.64056        54.40199        -0.86829
H         60.86373        56.59985        -1.02474
H         62.07200        58.72289        -1.06713
H         63.28621        60.87905        -0.91208
H         64.47506        62.97798        -0.85045
H         65.73677        65.07194        -0.86270
H         67.00139        67.13756        -0.61024
H         67.96384        69.74956        -1.23736
H         69.51601        71.23672         0.62926
H         69.51761        73.63840         1.32389
