         732
 CSIRO Nanostructure Databank - Neutral Graphene Oxide Data Set
C         23.16209        24.45573         0.01948
C         21.97329        25.12340        -0.23649
C         23.05424        27.27157         0.12455
C         21.91531        26.52476        -0.16640
C         22.95592        28.73774         0.37992
C         21.74329        29.52112         0.05849
C         22.93103        31.65748         0.51425
C         21.72969        30.86404         0.16055
C         22.91725        33.19963         0.39211
C         21.70105        33.90137        -0.05748
C         22.92253        35.96723        -0.57822
C         21.72000        35.17688        -0.52785
C         22.93759        37.31458        -0.95876
C         21.70319        38.05349        -1.18438
C         22.93895        40.12754        -1.84332
C         21.68825        39.35735        -1.52675
C         22.90942        41.58394        -1.43168
C         21.71741        42.26343        -1.03041
C         22.79565        44.45480        -1.53591
C         21.65956        43.62823        -0.98698
C         22.82870        45.90531        -1.08349
C         21.63165        46.59157        -0.91903
C         22.79988        48.68834        -0.59410
C         21.61744        47.97185        -0.64847
C         25.66296        23.08503         0.71088
C         25.60645        24.48423         0.54359
C         24.34790        25.16884         0.30122
C         25.53341        27.32551         0.44125
C         24.31003        26.59812         0.31673
C         25.50145        28.78714         0.21454
C         24.24238        29.52795         0.48446
C         25.43250        31.73653         0.34452
C         24.24344        31.00443         0.38815
C         25.41838        33.19397         0.26167
C         24.20878        33.87685         0.19469
C         25.46063        36.04975        -0.23817
C         24.16108        35.33231        -0.06047
C         25.47183        37.26893        -1.12934
C         24.17728        38.05010        -1.08600
C         25.43949        40.12746        -1.44919
C         24.19843        39.40534        -1.38923
C         25.39297        41.58433        -1.71268
C         24.11440        42.32475        -1.49160
C         25.32708        44.47970        -1.08751
C         24.09869        43.71942        -1.36485
C         25.32086        45.95473        -1.07381
C         24.06186        46.62847        -0.99840
C         25.29266        48.77997        -0.80028
C         24.04493        48.04243        -0.78436
C         25.32594        50.19376        -0.61717
C         28.07842        23.14713         0.98567
C         26.87251        22.43863         0.95223
C         28.06369        24.55407         0.81941
C         26.81793        25.22970         0.62919
C         28.02057        27.39021         0.54992
C         26.78324        26.66414         0.54433
C         28.00016        28.89254         0.72422
C         26.75952        29.58103         0.21243
C         27.91573        31.75539         0.35378
C         26.70890        31.05935         0.34689
C         27.92887        33.19289         0.21783
C         26.69368        33.89827         0.12301
C         27.93625        35.98115        -0.36655
C         26.71952        35.28106        -0.15984
C         27.91638        37.42395        -0.64070
C         26.72340        38.08283        -0.92368
C         27.90601        40.24945        -1.08290
C         26.66853        39.49676        -1.16979
C         27.92320        41.61911        -1.33453
C         26.68933        42.34922        -1.66506
C         27.87282        44.61732        -1.32699
C         26.65613        43.78790        -1.23267
C         27.82452        45.97842        -1.12336
C         26.53688        46.67301        -1.04519
C         27.78328        48.86924        -1.26133
C         26.51358        48.09210        -0.97961
C         27.76683        50.30384        -0.77654
C         26.52368        50.90811        -0.56318
C         30.70398        20.45446         0.68623
C         29.49977        21.06963         0.69234
C         30.61076        23.24371         1.12527
C         29.35680        22.42756         1.33823
C         30.56334        24.63401         0.95447
C         29.29376        25.30208         0.81217
C         30.51384        27.42574         0.34861
C         29.24223        26.70880         0.64226
C         30.49317        28.89651         0.08024
C         29.23405        29.64978         0.30675
C         30.42797        31.79536         0.51085
C         29.17892        31.02030         0.31393
C         30.42364        33.24466         0.27112
C         29.16462        33.90533         0.06709
C         30.44182        35.98845        -0.59787
C         29.15449        35.29504        -0.23250
C         30.40906        37.48242        -0.38385
C         29.15423        38.17195        -0.54066
C         30.31598        40.36624        -0.43308
C         29.11590        39.56698        -0.70009
C         30.40200        41.75032        -0.90344
C         29.18205        42.37418        -1.39678
C         30.38075        44.62102        -1.06667
C         29.16213        43.91803        -1.46528
C         30.33475        46.02754        -0.84201
C         29.06276        46.73856        -0.93575
C         30.21824        48.88689        -0.49466
C         29.02334        48.11391        -0.85273
C         30.22571        50.34190        -0.72722
C         29.01232        51.03652        -0.74243
C         30.19266        53.18229        -0.44894
C         29.03842        52.47642        -0.56017
C         33.22643        19.04658         1.29354
C         33.11190        20.42926         1.42522
C         31.90015        21.13744         1.14240
C         33.07492        23.31161         1.35865
C         31.85495        22.55629         1.24152
C         33.04939        24.71938         1.18440
C         31.80400        25.39131         0.92406
C         33.02010        27.52668         0.68375
C         31.80350        26.76679         0.66049
C         33.03221        28.92891         0.46322
C         31.80308        29.66311        -0.03718
C         32.99500        31.80741         0.48600
C         31.73261        31.05484         0.54373
C         32.90682        33.25993         0.62920
C         31.64372        33.95975         0.27776
C         32.91050        36.05659        -0.11851
C         31.68294        35.33311        -0.03764
C         32.88828        37.47090        -0.35596
C         31.62321        38.16046        -0.33324
C         32.88832        40.35079        -0.52614
C         31.65155        39.62405        -0.22635
C         32.86083        41.76341        -0.69057
C         31.59859        42.45964        -0.85978
C         32.81510        44.61988        -0.83302
C         31.59044        43.90344        -0.96501
C         32.79738        46.04082        -0.74752
C         31.54866        46.72136        -0.67524
C         32.81965        48.91729        -0.55295
C         31.55348        48.16371        -0.40195
C         32.80212        50.33568        -0.63880
C         31.51242        51.03635        -0.85431
C         32.77501        53.24102        -0.39234
C         31.49789        52.57316        -0.73642
C         32.80952        54.60950        -0.07716
C         35.58933        19.01966         1.93787
C         34.44886        18.36971         1.51286
C         35.55771        20.45272         2.27926
C         34.25869        21.19777         1.96649
C         35.49669        23.36686         1.73744
C         34.29872        22.65370         1.67622
C         35.50953        24.77914         1.45906
C         34.26862        25.45796         1.22282
C         35.48095        27.60013         0.95519
C         34.25977        26.86343         0.97386
C         35.47865        29.00415         0.72400
C         34.22807        29.67186         0.54141
C         35.45872        31.84896         0.39515
C         34.20718        31.12716         0.46732
C         35.46180        33.25021         0.25728
C         34.22746        34.01779         0.46088
C         35.37847        36.07994        -0.26998
C         34.17011        35.40824         0.00998
C         35.35096        37.49169        -0.50251
C         34.10429        38.18938        -0.47988
C         35.32956        40.33613        -0.73855
C         34.10147        39.62897        -0.60593
C         35.32621        41.77008        -0.80480
C         34.07466        42.47876        -0.81376
C         35.26101        44.65406        -0.82145
C         34.05617        43.91874        -0.85037
C         35.24430        46.04888        -0.66043
C         34.02763        46.75927        -0.62652
C         35.27425        48.93143        -0.60132
C         34.03321        48.20802        -0.56909
C         35.26028        50.35821        -0.60787
C         34.00898        51.06859        -0.62782
C         35.22018        53.22772        -0.35242
C         33.99618        52.52163        -0.48777
C         35.24736        54.60436        -0.02246
C         34.01237        55.27203         0.12727
C         38.34184        17.00167         3.66527
C         37.43957        18.16800         3.48094
C         38.10289        19.07545         2.44106
C         36.85629        18.28218         2.07122
C         38.04436        20.56149         2.41902
C         36.83948        21.21529         2.32580
C         38.02392        23.45726         2.00553
C         36.74527        22.69750         2.20201
C         37.99919        24.73831         1.20372
C         36.72361        25.51872         1.36919
C         37.95412        27.66430         1.03949
C         36.72998        26.91333         1.13569
C         37.96680        29.04037         0.75345
C         36.71287        29.73205         0.62236
C         37.93170        31.85214         0.24630
C         36.69995        31.13391         0.40415
C         37.90642        33.25458        -0.02092
C         36.66217        33.96042        -0.02680
C         37.84583        36.06975        -0.51628
C         36.63059        35.36835        -0.26001
C         37.81387        37.49222        -0.71758
C         36.57410        38.19570        -0.69027
C         37.78434        40.33350        -0.94024
C         36.56277        39.62399        -0.80089
C         37.78292        41.77173        -0.92409
C         36.54614        42.47189        -0.87010
C         37.77792        44.67771        -0.72679
C         36.54278        43.94740        -1.16856
C         37.77977        46.04381        -0.63073
C         36.50757        46.77008        -0.27948
C         37.74066        48.92868        -0.59183
C         36.51614        48.24098        -0.58852
C         37.73789        50.36249        -0.59906
C         36.50437        51.05121        -0.61409
C         37.79611        53.25318        -0.39752
C         36.48233        52.52109        -0.64213
C         37.74971        54.61008         0.16667
C         36.51478        55.28921         0.26481
C         37.71460        57.22302         1.15172
C         36.53540        56.62126         0.74275
C         40.61364        14.87948         2.95365
C         40.61421        16.25352         2.71239
C         39.40924        17.07273         2.82918
C         40.65153        19.14077         2.58632
C         39.41884        18.38979         2.07800
C         40.63256        20.56145         2.10295
C         39.35089        21.28011         2.34535
C         40.49687        23.30958         1.23585
C         39.34519        22.74852         2.06235
C         40.54319        24.81668         1.33294
C         39.26718        25.50891         1.52165
C         40.49970        27.69008         1.06351
C         39.23195        27.01990         1.37121
C         40.46702        29.08479         0.73716
C         39.22261        29.76250         0.64259
C         40.38607        31.92268         0.20684
C         39.18098        31.17793         0.37185
C         40.35822        33.26430        -0.18463
C         39.11933        33.95995        -0.27385
C         40.30760        36.08717        -0.77355
C         39.08457        35.36987        -0.53978
C         40.27046        37.50507        -0.95524
C         39.02804        38.20645        -0.92477
C         40.22915        40.34803        -1.28689
C         39.01356        39.63050        -1.05446
C         40.24025        41.79636        -1.15665
C         39.01128        42.47434        -0.92269
C         40.27711        44.66425        -0.66984
C         39.01522        43.89256        -0.41407
C         40.25367        46.03411        -0.68676
C         39.01604        46.78859        -0.62147
C         40.22969        48.94848        -0.66396
C         39.00681        48.20315        -0.61663
C         40.24049        50.33829        -0.48767
C         38.99431        51.07222        -0.44849
C         40.23642        53.14554         0.07462
C         39.01621        52.45247        -0.22761
C         40.21125        54.49955         0.43292
C         38.96981        55.21313         0.58243
C         40.16097        57.14474         1.64398
C         38.95066        56.54053         1.11661
C         40.19019        58.41679         2.16684
C         42.96979        14.75496         2.39083
C         41.79273        14.13593         2.78627
C         43.01954        16.15288         2.16236
C         41.82649        16.91113         2.32035
C         43.04493        19.00971         1.89043
C         41.87956        18.34817         2.20893
C         43.11092        20.51412         2.14049
C         41.80272        21.23100         1.83783
C         42.99297        23.35418         1.30596
C         41.81837        22.64779         1.54028
C         42.99802        24.81115         1.15476
C         41.72887        25.53605         1.27411
C         42.96599        27.72892         1.12987
C         41.69847        26.97640         1.16474
C         42.94316        29.15260         0.73714
C         41.73130        29.78576         0.58159
C         42.97171        32.04296         0.42274
C         41.68349        31.26742         0.51172
C         42.90479        33.53123         0.08437
C         41.62757        33.90808        -0.69858
C         42.74717        36.11603        -1.05234
C         41.55235        35.41385        -0.81004
C         42.71368        37.52103        -1.30358
C         41.47354        38.22102        -1.20826
C         42.65548        40.32460        -1.82157
C         41.43175        39.62819        -1.43563
C         42.66891        41.88536        -1.64500
C         41.46264        42.50058        -1.12799
C         42.79674        44.60360        -0.95939
C         41.55813        43.87485        -0.51501
C         42.81395        46.06590        -0.81638
C         41.52453        46.79359        -0.66837
C         42.77892        48.93519        -0.72091
C         41.49275        48.24082        -1.10653
C         42.75026        50.30431        -0.37405
C         41.49135        51.05006        -0.32769
C         42.71751        53.13516         0.22916
C         41.48404        52.41763        -0.01852
C         42.73830        54.45005         0.65030
C         41.48819        55.29602         0.58166
C         42.69507        57.04454         1.94383
C         41.39944        56.27258         1.75426
C         42.60455        58.34788         2.53395
C         41.39990        58.99329         2.65945
C         45.47788        16.14763         1.65998
C         44.24689        16.83630         1.79836
C         45.42984        18.90532         1.20876
C         44.23999        18.25125         1.61746
C         45.45929        20.38039         0.99888
C         44.30856        21.18799         1.48591
C         45.34420        23.23312         0.59692
C         44.22130        22.61606         1.09399
C         45.43915        24.70514         0.77384
C         44.19056        25.47897         0.96063
C         45.45668        27.69725         0.51663
C         44.26688        26.96288         1.03780
C         45.44980        29.05772         0.29143
C         44.27918        29.89869         0.79816
C         45.31253        31.86777        -0.42621
C         44.22298        31.28300         0.18611
C         45.25158        33.26395        -0.87793
C         44.09670        34.02876        -0.70295
C         45.11967        36.01911        -1.70432
C         44.01603        35.39892        -1.12424
C         45.07572        37.43763        -2.05042
C         43.90623        38.22155        -1.66867
C         45.17837        40.35833        -1.79691
C         43.94369        39.62435        -1.79563
C         45.17840        41.79157        -1.55781
C         43.98401        42.51249        -1.44556
C         45.24735        44.65153        -1.16441
C         43.97935        43.92953        -1.19929
C         45.27161        46.03001        -1.11088
C         44.00847        46.82522        -1.36290
C         45.21493        48.89806        -0.49651
C         44.00878        48.24941        -0.82792
C         45.20167        50.25221        -0.08432
C         43.97296        50.95414        -0.09695
C         45.28191        53.10924         0.34959
C         43.98332        52.41684         0.01430
C         45.19962        54.47665         0.88753
C         43.97624        55.10991         1.03441
C         45.17074        57.01014         2.11244
C         43.91331        56.42920         1.66966
C         46.65354        16.81790         1.36977
C         47.84659        18.94886         0.72860
C         46.64382        18.21319         1.13657
C         47.69677        20.14225        -0.01966
C         46.35635        20.89828        -0.13157
C         47.59528        23.34798        -0.63730
C         46.41659        22.48663        -0.12946
C         47.79674        24.74222        -0.23151
C         46.71276        25.44121         0.47580
C         47.95690        27.63649        -0.03257
C         46.72556        26.94212         0.46619
C         47.83147        29.03507        -0.47867
C         46.62214        29.74078        -0.25767
C         47.68830        31.76126        -1.19161
C         46.55032        31.11857        -0.63483
C         47.62426        33.15352        -1.58220
C         46.40451        33.85242        -1.50062
C         47.66327        36.02742        -2.21439
C         46.31383        35.23244        -1.99606
C         47.68500        37.47925        -1.97900
C         46.45067        38.24360        -2.16450
C         47.64143        40.31225        -1.48020
C         46.41479        39.66262        -1.81023
C         47.65430        41.72435        -1.25478
C         46.43677        42.47520        -1.32176
C         47.70686        44.54756        -0.85319
C         46.47172        43.87711        -1.12841
C         47.75176        45.95987        -0.68685
C         46.54775        46.73786        -1.00811
C         47.70254        48.77902         0.01211
C         46.52331        48.22334        -0.67473
C         47.58795        50.07163         0.58155
C         46.42340        50.87872         0.40900
C         47.56465        52.90064         1.29926
C         46.44105        52.26473         0.72400
C         47.67512        54.31802         1.38559
C         46.50901        55.21689         1.01380
C         46.36971        56.43205         1.89022
C         50.27564        19.14790         0.51018
C         49.14639        18.45418         0.95499
C         50.14880        20.22978        -0.37875
C         48.82856        20.57516        -0.71653
C         50.05140        23.24602        -1.19149
C         48.78927        22.72819        -1.20421
C         50.17948        24.65812        -0.95107
C         49.01875        25.40023        -0.53386
C         50.26948        27.48901        -0.91259
C         49.10278        26.82712        -0.49998
C         50.22434        28.92888        -1.16367
C         48.98039        29.65902        -1.02094
C         50.10251        31.71507        -1.80157
C         48.92212        31.04492        -1.35997
C         50.07372        33.13217        -1.98881
C         48.84483        33.85049        -1.91046
C         50.11681        35.96666        -1.92581
C         48.88976        35.26548        -2.01203
C         50.12822        37.40495        -1.64947
C         48.85385        38.12298        -1.59111
C         50.06812        40.22688        -1.07872
C         48.86176        39.56255        -1.38069
C         50.09616        41.62991        -0.87373
C         48.88280        42.38377        -0.95628
C         50.12582        44.45139        -0.37516
C         48.91024        43.79167        -0.72995
C         50.12464        45.84752        -0.07530
C         48.92224        46.61419        -0.24168
C         50.06650        48.59812         0.73000
C         48.89070        48.00869         0.14293
C         50.00917        49.89644         1.28564
C         48.71164        50.57616         1.36861
C         49.98424        52.72581         2.02611
C         48.69244        52.08956         1.77266
C         50.04895        54.11399         1.96777
C         48.90197        54.89124         1.71188
C         52.51191        20.27186        -1.26947
C         51.37426        21.09956        -0.70298
C         52.53107        23.10597        -1.63699
C         51.20407        22.35759        -1.62641
C         52.59222        24.52793        -1.56346
C         51.40332        25.31447        -1.21966
C         52.72067        27.41622        -1.40457
C         51.44789        26.72385        -1.16743
C         52.65045        28.88998        -1.71843
C         51.35000        29.58485        -1.65757
C         52.49650        31.64547        -2.41934
C         51.33654        30.98930        -1.96613
C         52.48108        33.08200        -2.56077
C         51.28429        33.84821        -2.19613
C         52.61102        35.94137        -1.65359
C         51.32135        35.24557        -2.02983
C         52.61700        37.45566        -1.94017
C         51.31485        38.07928        -1.47795
C         52.59759        40.20463        -0.93201
C         51.31242        39.42394        -0.80470
C         52.57043        41.57118        -0.69005
C         51.33031        42.30310        -0.59114
C         52.55171        44.35770         0.09820
C         51.34005        43.69590        -0.30835
C         52.52510        45.72662         0.50007
C         51.31832        46.47849         0.39448
C         52.46411        48.44934         1.34188
C         51.29552        47.84946         0.80737
C         52.40706        49.79899         1.84544
C         51.17044        50.52256         1.82480
C         52.32413        52.46381         2.77355
C         51.15048        51.89544         2.24760
C         53.59596        20.88760        -1.77666
C         54.96761        22.99444        -1.95280
C         53.69598        22.34781        -1.79893
C         55.00861        24.41567        -2.06339
C         53.81990        25.17576        -1.81705
C         55.05687        27.27322        -2.18573
C         53.90453        26.62556        -1.82563
C         55.00830        28.68515        -2.64449
C         53.73846        29.45842        -2.57639
C         55.05333        31.62255        -2.39737
C         53.76127        30.95875        -2.90836
C         55.04102        32.99843        -2.13053
C         53.88358        33.80869        -2.45746
C         55.13872        35.96174        -1.75883
C         53.87767        35.28059        -2.16164
C         55.06179        37.35170        -1.23606
C         53.85886        38.07973        -1.31727
C         55.05314        40.07980        -0.58734
C         53.83953        39.46121        -0.97332
C         55.12647        41.53527        -0.42383
C         53.82517        42.33216        -0.53787
C         54.95800        44.22853         0.64146
C         53.78270        43.65725         0.09440
C         54.92423        45.58085         1.10986
C         53.72120        46.34257         0.98813
C         54.89576        48.29947         1.89465
C         53.69583        47.70690         1.40294
C         54.92505        49.77138         2.27301
C         53.56666        50.42046         2.35796
C         53.50747        51.73529         2.83190
C         57.39815        22.94623        -2.07051
C         56.19434        22.27777        -1.98065
C         57.44335        24.35039        -2.26008
C         56.25497        25.07273        -2.30492
C         57.53933        27.26399        -2.47946
C         56.24522        26.52182        -2.72203
C         57.54292        28.67733        -2.51708
C         56.30091        29.44918        -2.92392
C         57.50103        31.50278        -2.10309
C         56.26734        30.86501        -2.35916
C         57.50478        32.96616        -1.91291
C         56.22643        33.62843        -1.43569
C         57.49048        35.76041        -1.04859
C         56.33374        35.14464        -1.48716
C         57.49339        37.18188        -0.68505
C         56.25609        37.94603        -0.76201
C         57.41126        39.97087         0.10849
C         56.23899        39.32803        -0.41049
C         57.36151        41.28211         0.62986
C         56.22298        42.10516         0.36994
C         57.23724        43.97593         1.60130
C         56.14637        43.43142         0.83627
C         57.22458        45.32939         1.96807
C         56.09164        46.16494         1.69705
C         57.28156        48.26417         2.65478
C         56.06305        47.54653         2.06267
C         56.79936        49.17494         3.76381
C         55.69384        49.90079         3.57689
C         59.89346        24.42568        -2.98419
C         58.78108        25.04888        -2.18242
C         59.98833        27.22999        -2.44214
C         58.73473        26.54415        -2.39151
C         59.99252        28.66390        -2.27642
C         58.75963        29.38157        -2.30697
C         59.98041        31.48424        -1.80124
C         58.74988        30.81300        -2.11659
C         60.00611        32.85906        -1.39408
C         58.79346        33.66997        -1.54223
C         59.89571        35.58203        -0.44591
C         58.72586        35.01219        -0.93359
C         59.98088        37.05862        -0.12688
C         58.64695        37.77637        -0.22420
C         59.68485        39.63553         1.23340
C         58.64697        39.19066         0.18832
C         59.44073        40.90723         1.94777
C         58.40462        41.77596         1.50438
C         59.27855        43.54501         2.97176
C         58.32295        43.10321         2.01283
C         59.30661        44.94376         3.37660
C         58.40950        45.87804         2.66522
C         59.29523        47.70777         4.19940
C         58.42295        47.33819         3.07628
C         61.05535        25.12828        -3.14677
C         61.15034        26.49482        -2.76044
C         61.20184        29.38096        -2.08403
C         61.19169        30.73431        -1.83296
C         61.12955        33.48589        -0.81765
C         61.08887        34.81372        -0.40551
C         60.59788        37.33985         1.23516
C         60.49201        38.54334         1.82467
C         60.30458        41.33335         2.96921
C         60.22302        42.62606         3.47165
C         60.19324        45.43920         4.30727
C         60.17114        46.80690         4.72444
O         26.04367        43.91192         0.10085
O         58.23546        33.67871        -2.93132
O         31.55473        51.91169        -2.03816
O         47.71217        27.47731         1.41833
O         30.41288        27.94780        -1.05604
O         53.08677        28.43660        -0.39314
O         59.15943        46.88846         1.88132
O         37.22659        53.12988        -1.75381
O         42.50192        41.23483        -2.94370
O         26.18080        29.13984        -1.05651
O         42.34824        46.52531         0.52028
O         33.61331        33.80609         1.78378
O         26.08006        42.02106        -2.95241
O         46.39065        23.04537        -1.50096
O         22.77753        32.52102         1.68445
O         23.54781        29.06636         1.68926
O         29.32448        43.10747        -2.67192
O         59.88806        39.89607        -0.19817
O         48.34418        51.02820         2.71038
O         24.76335        36.16728         1.02895
O         37.36128        23.49820         3.28390
O         39.20082        26.35854         2.69303
O         34.61152        20.82468         3.34322
O         46.74981        47.76962        -2.05766
O         31.03694        31.30465         1.79884
O         45.65957        37.85103        -3.31087
O         46.87436        35.50582        -3.31302
O         53.22619        33.56945        -3.71947
O         30.89228        40.16253         0.90057
O         39.63002        22.29795         3.40011
O         54.03665        28.68655        -3.78071
O         42.34523        31.81376         1.73030
O         30.80290        48.52699         0.81734
O         44.83483        53.00906        -1.04868
O         46.45752        24.94675         1.84895
O         45.56341        21.05085         2.29408
O         48.59341        21.46386        -1.77906
O         43.80674        27.48589         2.34051
O         54.77077        42.26325        -1.65200
O         54.65227        35.96250        -3.19086
O         55.61137        50.51590         1.23453
H         56.53209        50.15286         1.16743
O         57.85826        49.11158         1.61626
H         58.43493        48.52182         1.07482
O         36.60816        44.01246        -2.65129
H         35.82523        43.53624        -3.00244
O         27.90386        29.08309         2.18129
H         28.77034        28.86682         2.58596
O         56.38371        29.60810        -4.37529
H         56.32830        28.69930        -4.75367
O         36.97660        17.17495         1.20453
H         37.55720        16.50659         1.63146
O         56.08663        26.54737        -4.19097
H         55.16547        26.27630        -4.39468
O         53.78282        31.09460        -4.34367
H         54.57710        30.60168        -4.66386
O         39.55511        18.23435         0.66000
H         38.71951        17.84217         0.32021
O         36.49748        46.72252         1.20151
H         37.37648        47.02610         1.51412
O         46.81674        55.70696        -0.33723
H         46.01533        56.15614        -0.68032
O         51.79355        21.64489         0.57510
H         52.02915        20.90295         1.16969
O         60.88557        37.59778        -1.12882
H         60.83508        38.58350        -1.05325
O         29.26985        22.18129         2.78828
H         30.10658        21.74624         3.05994
O         41.41380        48.20418        -2.56221
H         41.45862        49.12453        -2.89542
O         51.24894        39.08134         0.65297
H         50.30637        38.91721         0.87259
O         22.55784        44.53848        -2.99848
H         22.59916        43.62232        -3.35021
O         50.98135        21.92146        -2.98293
H         50.06578        21.56214        -3.03056
O         45.70779        20.52925        -1.35890
H         46.04644        21.13912        -2.05495
O         41.72495        43.70085         0.95722
H         41.95896        44.59908         1.29751
O         27.86091        48.96479        -2.73768
H         27.07258        49.46550        -3.03848
O         41.61689        56.11989        -0.61578
H         41.68594        55.52216        -1.38969
O         43.86076        46.89246        -2.80587
H         44.68798        47.28568        -3.16160
O         23.02864        40.16393        -3.31570
H         23.04011        39.23558        -3.63160
O         41.22833        55.45934         2.95296
H         41.17556        56.06675         3.72039
O         40.57608        19.19896         4.03121
H         41.31885        19.76956         4.33394
O         42.90655        34.27502         1.32125
H         42.61645        33.65044         2.02863
O         40.19813        22.92153        -0.14421
H         40.91131        23.26838        -0.71978
O         38.98273        43.70926         1.06165
H         39.91371        43.49651         1.33261
O         30.55794        35.82661        -2.07096
H         30.51294        34.86550        -2.26293
O         44.56425        30.11189         2.21145
H         44.45865        29.23518         2.65826
O         52.65165        37.69513        -3.36293
H         53.47099        37.26689        -3.71497
O         41.82191        33.36795        -2.04339
H         41.09502        33.69842        -2.61206
O         59.18533        24.85943        -0.76958
H         60.05950        25.29250        -0.66192
O         56.13976        33.28693        -0.00800
H         55.31291        33.67154         0.35268
O         43.27367        20.64512         3.58531
H         44.24303        20.70801         3.75427
O         32.02610        29.90181        -1.45854
H         31.71821        29.08671        -1.92176
O         25.54775        36.72796        -2.49642
H         25.74946        37.47363        -3.10099
O         52.69583        35.78348        -0.20019
H         52.01149        36.35997         0.20548
O         38.03881        24.36204        -0.20407
H         37.79756        25.14509        -0.74133
H         23.17224        23.35861        -0.02069
H         21.06234        24.55434        -0.46677
H         20.94893        27.02305        -0.32166
H         20.82770        28.99413        -0.24658
H         20.78825        31.40166        -0.02153
H         20.73841        33.37843         0.02509
H         20.77183        35.62245        -0.85941
H         20.74448        37.53907        -1.02899
H         20.72195        39.85258        -1.70137
H         20.83189        41.67795        -0.74337
H         20.72040        44.11655        -0.69190
H         20.67219        46.06664        -1.01858
H         22.75664        49.76992        -0.41116
H         20.65674        48.48720        -0.51187
H         24.74287        22.48633         0.69080
H         24.39181        50.74592        -0.45362
H         26.86975        21.35425         1.12864
H         26.46752        51.97779        -0.31726
H         30.78759        19.42681         0.30493
H         28.60770        20.53672         0.33326
H         30.14649        54.24211        -0.16109
H         28.08741        53.00282        -0.40105
H         32.36732        18.45452         0.95104
H         31.87394        55.17977        -0.00205
H         34.50670        17.29369         1.29699
H         33.98129        56.34054         0.37510
H         38.15434        16.21344         4.40609
H         36.86589        18.57796         4.32572
H         37.66622        58.25195         1.53231
H         35.60582        57.20022         0.81607
H         39.68542        14.37693         3.26086
H         39.28798        59.04396         2.17778
H         43.87289        14.14239         2.26711
H         41.78095        13.05216         2.96740
H         43.51694        58.87809         2.83884
H         41.36531        60.00545         3.08567
H         45.51601        15.05935         1.80271
H         45.14183        57.93509         2.70520
H         47.59402        16.25537         1.29006
H         47.27936        56.91808         2.27191
H         51.27501        18.80654         0.81966
H         49.28117        17.54700         1.55966
H         51.00466        54.63163         2.12643
H         49.00752        55.98448         1.70867
H         52.45577        19.17350        -1.23095
H         52.31864        53.50262         3.12992
H         54.43464        20.28867        -2.16005
H         54.41948        52.21795         3.20894
H         58.33904        22.38174        -2.00837
H         56.19540        21.18503        -1.86982
H         57.36309        49.25072         4.70464
H         55.33297        50.58363         4.36104
H         59.82862        23.37157        -3.28965
H         59.25317        48.72619         4.60867
H         61.93112        24.65086        -3.61034
H         62.11593        27.00582        -2.87256
H         62.16150        28.84651        -2.08988
H         62.14831        31.24431        -1.65845
H         62.07251        32.93361        -0.70460
H         62.00769        35.28552        -0.03083
H         61.19783        36.55096         1.71426
H         60.96031        38.71432         2.80570
H         61.09531        40.66572         3.33747
H         60.94924        42.93877         4.23303
H         60.90731        44.77078         4.80671
H         60.85017        47.11455         5.53214
