         234
 CSIRO Nanostructure Databank - Neutral Graphene Oxide Data Set
C          1.34933         2.10745         0.04682
C          1.30473         3.50826         0.03833
C          2.54254         1.42788        -0.15356
C          2.47510         4.26346        -0.18219
C          1.23407         6.46031        -0.25440
C          1.20553         7.83269        -0.31700
C          2.46436         5.73250        -0.22703
C          2.40035         8.61856        -0.33732
C          1.16342        10.77112        -0.20902
C          1.13231        12.14763        -0.13631
C          2.36500        10.03237        -0.41101
C          2.30002        12.95706        -0.21029
C          1.03215        15.10191        -0.19784
C          1.00763        16.45110        -0.22820
C          2.26821        14.34844        -0.11176
C          2.23143        17.28637         0.00621
C          2.40317        18.39678        -1.01820
C          3.75184         2.14582        -0.36539
C          3.68994         3.57253        -0.38992
C          4.98867         1.45628        -0.49925
C          4.91727         4.34146        -0.62564
C          3.66380         6.45812        -0.23945
C          3.66421         7.90728        -0.24928
C          4.93747         5.77523        -0.27741
C          4.86128         8.59727        -0.11568
C          3.61552        10.78992        -0.61708
C          3.61858        12.32399        -0.60409
C          4.90952        10.04580        -0.34554
C          4.79653        12.93578         0.14284
C          3.51607        15.09365         0.02819
C          3.49840        16.46632         0.08015
C          4.76182        14.35274         0.26926
C          4.75025        17.28214         0.27132
C          3.60932        18.95670        -1.26528
C          4.83518        18.46051        -0.67039
C          6.23382         2.12320        -0.64093
C          6.23273         3.60939        -0.72824
C          7.44754         1.46956        -0.73708
C          7.44982         4.33064        -0.33183
C          6.13701         6.43227        -0.09905
C          6.20953         7.93075        -0.14919
C          7.40127         5.72375        -0.02748
C          7.22843         8.57104         0.79656
C          6.06565        10.77841         0.22308
C          5.96193        12.19954         0.43510
C          7.10453        10.06424         0.83920
C          7.10779        12.89836         1.04657
C          5.94877        15.08400         0.50881
C          6.01204        16.46898         0.26543
C          7.15351        14.42005         1.01389
C          7.25441        17.10705         0.16548
C          6.05728        19.03646        -0.87729
C          7.28574        18.45861        -0.36843
C          8.70525         2.24777        -1.01563
C          8.67886         3.61441        -0.35105
C          9.96768         1.47807        -0.73137
C          9.85372         4.23140         0.02891
C          8.56356         6.38899         0.41084
C          8.54884         7.76800         0.97963
C          9.78872         5.59848         0.57424
C          9.88897         8.43626         1.14896
C          8.12135        10.82604         1.49587
C          8.36155        12.16232         1.26971
C         10.00104         9.72438         1.63824
C          9.68517        12.79828         1.53143
C          8.46385        15.08287         0.93116
C          8.47047        16.39571         0.48149
C          9.72348        14.34770         1.28498
C          9.73994        17.14012         0.38482
C          8.49196        19.11878        -0.53484
C          9.73177        18.50393        -0.20056
C         11.14883         2.12180        -0.52829
C         11.15687         3.63411        -0.45792
C         12.42517         1.44565        -0.55100
C         12.38768         4.15056         0.25067
C         11.09870         6.30609         0.91332
C         11.14603         7.77956         0.90477
C         12.38148         5.54840         0.78462
C         12.36851         8.45392         1.05579
C         11.11814        10.61106         1.42322
C         10.97270        12.00960         1.39354
C         12.39323         9.90933         1.22830
C         12.22417        12.81446         1.36758
C         11.01154        14.92361         0.78530
C         11.02935        16.37735         0.41585
C         12.17852        14.21613         0.84739
C         12.13800        16.97730        -0.45473
C         10.93358        19.17776        -0.28017
C         12.20471        18.50865        -0.20745
C         13.63670         2.11006        -0.47283
C         13.68004         3.52793        -0.13007
C         14.89056         1.40668        -0.60166
C         14.85374         4.19175         0.09443
C         13.63210         6.32829         0.80536
C         13.61687         7.68737         1.02185
C         14.88532         5.52709         0.75826
C         14.89980         8.38996         1.28798
C         13.58792        10.61798         1.25005
C         13.58700        12.08512         1.40744
C         14.89009         9.90209         1.33878
C         14.90125        12.85092         1.08973
C         13.37888        14.74789         0.13995
C         13.41380        16.16668        -0.30691
C         14.65067        13.96601         0.04994
C         14.59488        16.68146        -0.75654
C         13.32208        19.30277        -0.03271
C         14.64547        18.84563        -0.38056
C         16.09485         2.04911        -0.45797
C         16.12806         3.51448        -0.21868
C         17.35926         1.39734        -0.70852
C         17.43345         4.16917         0.09481
C         16.19709         6.23345         0.96581
C         16.19954         7.71133         1.05186
C         17.47341         5.56839         0.60575
C         17.37824         8.41293         0.99592
C         16.14856        10.59074         0.98938
C         16.09806        11.97021         0.70228
C         17.36542         9.86494         0.87568
C         17.28443        12.61630         0.32589
C         15.91879        14.65357        -0.41704
C         15.90793        16.12244        -0.54315
C         17.23801        13.99186        -0.20234
C         17.06940        16.88644        -0.48877
C         15.88367        19.10856         0.11550
C         17.07535        18.36715        -0.34044
C         18.56281         1.99371        -0.43549
C         18.59247         3.24564         0.43303
C         19.79495         1.39041        -0.89964
C         19.93290         3.98303         0.44440
C         18.65188         6.22446         0.73817
C         18.71763         7.69523         1.13793
C         19.93848         5.48195         0.65378
C         19.86813         8.41743         0.44079
C         18.57141        10.55074         0.54308
C         18.52714        11.94560         0.28533
C         19.81087         9.83177         0.31329
C         19.73513        12.70396         0.01331
C         18.44704        14.82781        -0.15775
C         18.34582        16.19876        -0.33453
C         19.71803        14.13363        -0.07014
C         19.57558        17.01758        -0.27963
C         18.24234        19.06352        -0.46462
C         19.48873        18.37550        -0.94468
C         20.99489         2.00985        -0.81573
C         21.14490         3.32926        -0.16112
C         22.26534         4.19350        -0.58487
C         21.17879         6.26060         0.28582
C         21.04688         7.73502         0.08319
C         22.28297         5.52222        -0.37380
C         22.15145         8.46149        -0.40661
C         20.96565        10.55484        -0.09663
C         20.95952        12.00951        -0.12441
C         22.12149         9.84234        -0.47140
C         22.15633        12.74587        -0.27927
C         20.93675        14.84536        -0.19253
C         20.92632        16.32579        -0.22344
C         22.14548        14.13153        -0.29389
C         22.07733        17.11450        -0.66387
C         20.75835        19.16334        -0.80968
C         21.97631        18.50560        -0.79454
O         12.96834        12.59742         2.61166
O          8.94965        10.18766         2.40536
O         10.27793         5.77024         1.98142
O         14.57617        17.90385        -1.43699
O          4.46651        10.33720        -1.73227
O         20.28019        16.95916         0.97573
O         14.92142         9.10563         2.57178
O         20.90203         5.88373         1.68458
O         15.32428        13.57012         2.21207
O          9.74498        13.77526         2.61742
O         10.61399        17.14075         1.58419
O         16.96666         4.16557        -1.28946
O         12.33792         4.36894         1.68083
O          6.82045        13.70087         2.25328
O         16.57577        13.98832        -1.54643
O          7.52327         7.90747         2.03806
O          5.57141         4.11023        -1.94425
O         15.55327         5.51286         2.07820
O         20.89847         3.30151         1.29920
O         13.67753        13.75586        -0.99303
O         19.02966         7.73846         2.55657
H         19.82044         7.16234         2.68992
O          2.01814        17.95109         1.29037
H          2.90513        18.26779         1.59777
O          6.77106         8.25109        -1.47654
H          6.06687         8.10569        -2.14465
O         19.32875        18.09580        -2.38011
H         19.08156        18.93342        -2.82501
O          8.75064         2.53616        -2.46846
H          7.86842         2.88671        -2.72345
O         11.26600         4.11529        -1.83656
H         10.56235         3.65531        -2.35575
O          4.68949        17.86942         1.63098
H          4.82327        17.13878         2.27292
O          3.80426        12.76149        -1.98634
H          4.32253        12.05179        -2.43533
O         18.34651         2.81344         1.79312
H         19.22112         2.58447         2.18310
O         11.67015        16.80405        -1.82232
H         12.41140        17.04817        -2.41743
H          0.42254         1.54214         0.21790
H          0.34204         4.00839         0.20739
H          2.56508         0.32905        -0.13740
H          0.28158         5.91394        -0.26355
H          0.22928         8.33104        -0.38513
H          0.22097        10.22736        -0.06120
H          0.16511        12.62827         0.06720
H          0.09102        14.55002        -0.33464
H          0.05141        16.98230        -0.34706
H          1.49877        18.81260        -1.48806
H          4.98305         0.35680        -0.46568
H          3.68909        19.81155        -1.95566
H          7.48706         0.37028        -0.72049
H          6.13759        19.94548        -1.49364
H          9.94577         0.38410        -0.85297
H          8.50471        20.12855        -0.97159
H         12.42332         0.35681        -0.71303
H         10.92965        20.25862        -0.48975
H         14.86697         0.32751        -0.81579
H         13.17494        20.35152         0.27255
H         17.34367         0.41353        -1.20440
H         16.02714        19.90093         0.86406
H         19.71878         0.41706        -1.40855
H         18.25824        20.14870        -0.28036
H         21.89372         1.54176        -1.24364
H         23.10004         3.71610        -1.12061
H         23.14534         6.09230        -0.74588
H         23.07289         7.94483        -0.70208
H         23.01321        10.37202        -0.82981
H         23.12195        12.22895        -0.35080
H         23.09818        14.67179        -0.37830
H         23.05103        16.62968        -0.82020
H         20.72438        20.25736        -0.92373
H         22.90154        19.08919        -0.91838
