         671
 CSIRO Nanostructure Databank - Neutral Graphene Oxide Data Set
C          5.98752        31.68426        -0.81187
C          5.99900        33.03909        -0.97339
C          8.34336        27.43466         0.02209
C          8.31301        28.82348         0.03868
C          7.15259        29.57062        -0.32060
C          8.40991        31.70534        -0.26612
C          7.17690        30.95573        -0.45143
C          8.41593        33.12230        -0.43410
C          7.20521        33.81163        -0.79139
C          8.40441        35.95478        -0.79269
C          7.21034        35.19482        -0.95477
C          8.40674        37.36669        -0.97114
C         10.78642        23.15456        -0.00830
C         10.77231        24.53244         0.05196
C          9.54160        25.28840         0.06669
C         10.82220        27.31069         0.69949
C          9.53149        26.66085         0.22098
C         10.81475        28.84016         0.60500
C          9.53455        29.59031         0.37908
C         10.82306        31.74767         0.24879
C          9.59780        31.03588         0.06846
C         10.80379        33.16596         0.15290
C          9.61523        33.85341        -0.21808
C         10.80000        36.04225        -0.30819
C          9.61061        35.28639        -0.41900
C         10.79000        37.41189        -0.60154
C          9.58316        38.10393        -0.88697
C         10.76929        40.36950        -0.57677
C          9.58473        39.60441        -1.16049
C         10.74062        41.69885        -0.31314
C         13.24864        18.79251        -0.22710
C         13.12843        20.21444        -0.57218
C         11.97548        21.02059        -0.16029
C         13.24769        23.12769        -0.45151
C         11.99693        22.39959        -0.22773
C         13.25468        24.54231        -0.33352
C         12.02998        25.27142        -0.06053
C         13.23090        27.44008        -0.32336
C         12.03064        26.64148         0.09002
C         13.24570        28.86190         0.18545
C         12.08102        29.57229         0.36227
C         13.30238        31.71382         0.17461
C         12.07760        31.02467         0.36280
C         13.35014        33.18292         0.30902
C         12.03731        33.93039         0.42983
C         13.32961        36.05943        -0.12729
C         12.02331        35.45477         0.36376
C         13.32813        37.42877        -0.34418
C         12.06598        38.14852        -0.63311
C         13.29989        40.24417         0.04713
C         12.06291        39.64386        -0.60910
C         13.32361        41.76689         0.03139
C         11.96475        42.50887        -0.04619
C         13.24877        44.61519        -0.29052
C         12.02693        43.92193        -0.37572
C         13.28549        46.02891        -0.24134
C         15.76032        14.50724         0.00535
C         15.73059        15.88514        -0.20608
C         14.39228        16.60044        -0.16927
C         15.66438        18.81892        -0.64587
C         14.42685        18.10830        -0.36287
C         15.68775        20.18685        -0.79216
C         14.43817        20.96566        -0.86368
C         15.71829        23.10798        -0.63108
C         14.46260        22.42659        -0.65483
C         15.73251        24.53580        -0.44381
C         14.50229        25.25296        -0.33614
C         15.75218        27.33940        -0.08173
C         14.52425        26.66914        -0.18577
C         15.79781        28.80554         0.16532
C         14.52426        29.57701         0.25747
C         15.75430        31.70908        -0.22802
C         14.53167        31.03238         0.05251
C         15.76187        33.16624        -0.36081
C         14.58589        33.90004        -0.08280
C         15.76370        36.00342        -0.57944
C         14.56099        35.31697        -0.22220
C         15.76646        37.44634        -0.63170
C         14.55168        38.15760        -0.47794
C         15.72528        40.29735        -0.67818
C         14.55352        39.58254        -0.47038
C         15.67575        41.76591        -1.01519
C         14.51320        42.49657        -0.39742
C         15.75795        44.61153        -0.53682
C         14.50877        43.88236        -0.39335
C         15.76924        46.01020        -0.32198
C         14.50884        46.74978        -0.17969
C         15.80391        48.90190        -0.13266
C         14.51891        48.13170        -0.02022
C         15.79054        50.29558         0.43855
C         18.29309        10.32311         0.84775
C         18.25967        11.69948         0.46877
C         17.03545        12.37888         0.31563
C         18.20937        14.51439         0.05923
C         16.98352        13.77908         0.09450
C         18.15370        15.92342        -0.11840
C         16.94665        16.61095        -0.32316
C         18.17217        18.85040        -0.53418
C         16.94402        18.03356        -0.87115
C         18.19765        20.19952        -0.72571
C         16.95242        20.92981        -1.18089
C         18.17899        23.08962        -0.72280
C         16.94194        22.39945        -0.78498
C         18.21066        24.52634        -0.54805
C         16.96915        25.24485        -0.39285
C         18.24657        27.40940         0.12322
C         16.97183        26.64291        -0.16433
C         18.21490        28.85292        -0.34213
C         17.01064        29.55135        -0.22674
C         18.17872        31.62376        -0.86096
C         16.94585        30.96141        -0.39904
C         18.16957        33.10027        -1.10587
C         16.94980        33.86528        -0.74276
C         18.17966        36.00261        -1.25199
C         16.95181        35.26761        -0.83765
C         18.20847        37.49048        -1.08966
C         16.95903        38.18851        -0.77123
C         18.20707        40.32073        -0.88239
C         16.96133        39.59859        -0.79817
C         18.19305        41.73999        -0.94615
C         16.99935        42.47415        -0.84726
C         18.22942        44.60729        -0.57217
C         16.99565        43.89943        -0.69083
C         18.21065        45.99180        -0.29716
C         17.00229        46.68892        -0.16415
C         18.25993        48.87522         0.27548
C         16.97738        48.08870         0.41846
C         18.25712        50.21583         0.47334
C         17.00174        50.98501         0.62320
C         18.32544        53.16526         0.71541
C         17.03694        52.37805         0.80108
C         18.31408        54.47027         1.48021
C         20.70487         6.34841         2.41693
C         20.73305         7.61212         1.80431
C         19.51764         8.31191         1.52708
C         20.77571        10.23806         0.52356
C         19.49212         9.61566         1.02085
C         20.76623        11.75433         0.56163
C         19.50100        12.43352         0.36183
C         20.70857        14.58122         0.21788
C         19.46540        13.82738         0.19646
C         20.67564        15.95178         0.14226
C         19.40033        16.67824         0.09155
C         20.70563        18.84024        -0.28783
C         19.40398        18.15891        -0.09806
C         20.67926        20.23634        -0.61866
C         19.45603        20.94173        -0.71865
C         20.64479        23.13063        -0.94544
C         19.40523        22.35873        -0.84410
C         20.65669        24.55377        -0.62931
C         19.42824        25.24908        -0.52733
C         20.63923        27.39569        -0.54056
C         19.47981        26.69524        -0.34948
C         20.74746        28.85887        -0.15906
C         19.45140        29.57872        -0.46021
C         20.71957        31.71628        -0.26218
C         19.46577        30.94089        -0.63643
C         20.74553        33.14752        -0.74531
C         19.50661        33.78815        -1.19279
C         20.73624        36.00467        -0.91287
C         19.50705        35.30217        -1.28091
C         20.71339        37.44143        -0.46242
C         19.45948        38.20317        -0.80103
C         20.69893        40.31264        -0.54187
C         19.44422        39.58082        -0.71234
C         20.69179        41.66043        -0.61554
C         19.50353        42.45475        -1.04132
C         20.69683        44.51332        -0.36040
C         19.49724        43.88324        -0.56138
C         20.74063        46.00642        -0.53365
C         19.50096        46.67768         0.07647
C         20.77605        48.72512         0.45896
C         19.52450        48.18723        -0.19033
C         20.72269        50.09577         0.93458
C         19.57317        50.96465         0.42660
C         20.77147        52.98260         1.44444
C         19.45117        52.26299         1.24596
C         20.74571        54.26766         1.88459
C         19.48470        55.02506         1.96400
C         20.74950        57.08937         2.58483
C         19.54188        56.38456         2.41409
C         20.77130        58.49082         2.78738
C         23.04301         3.88730         4.00311
C         21.86594         4.45659         3.52901
C         23.14631         6.37444         2.68365
C         21.88979         5.71608         2.86977
C         23.18772         7.61220         1.99151
C         22.00632         8.24562         1.55461
C         23.21469        10.32751         1.08134
C         22.03699         9.61294         1.08751
C         23.21939        11.83253         1.14278
C         21.95235        12.45878         0.61205
C         23.19216        14.56538         0.28555
C         21.98608        13.88648         0.39153
C         23.18282        16.03317         0.14559
C         21.89146        16.74056         0.54282
C         23.11076        18.89816         0.28367
C         21.86930        18.16007         0.03330
C         23.22254        20.26182        -0.26426
C         21.97214        20.92884        -0.75190
C         23.06736        23.13713        -0.16257
C         21.98886        22.41439        -0.83685
C         23.10397        24.55175        -0.26002
C         21.89731        25.22119        -0.54485
C         23.13562        27.37718        -1.18797
C         21.87104        26.65882        -0.87492
C         23.09775        28.89433        -1.43181
C         21.96506        29.60011        -0.69368
C         23.17929        31.75364        -0.85509
C         21.97582        30.97916        -0.67002
C         23.21008        33.14910        -0.68169
C         21.93348        33.86275        -0.75874
C         23.18749        36.06004        -0.64742
C         21.93566        35.31610        -0.81849
C         23.22240        37.42623        -0.78895
C         21.94017        38.19845        -1.01422
C         23.20915        40.35180        -0.94871
C         22.02318        39.59585        -0.37065
C         23.15594        41.69500        -1.19078
C         21.86697        42.45672        -1.06070
C         23.25321        44.52314        -0.54366
C         21.99837        43.73360        -0.22146
C         23.23611        45.95430        -0.19484
C         22.02228        46.64951        -0.06081
C         23.24587        48.63757         0.71695
C         22.00281        48.01115         0.37831
C         23.28206        49.95778         1.46666
C         21.97796        50.75294         1.39911
C         23.28987        52.81298         1.85302
C         22.06982        52.25724         1.17385
C         23.25730        54.13694         2.47755
C         21.97167        54.90226         2.43387
C         23.21841        57.04326         2.42130
C         22.02174        56.38187         2.49849
C         23.21746        58.51041         2.40901
C         21.97729        59.22342         2.76256
C         23.28010        61.23911         3.28792
C         22.04391        60.59839         3.04431
C         24.27295         4.53956         3.85326
C         25.59567         6.48229         3.08491
C         24.35578         5.78621         3.19425
C         25.70082         7.70704         2.40763
C         24.49898         8.21460         1.71128
C         25.74857        10.45836         1.40065
C         24.51311         9.66062         1.22379
C         25.76809        11.79296         1.01603
C         24.49748        12.41846         0.56197
C         25.83676        14.60469         0.01177
C         24.49262        13.85746         0.15598
C         25.78892        16.08267         0.35057
C         24.48987        16.77463         0.20916
C         25.66762        19.02522         0.51237
C         24.43220        18.22447         0.55259
C         25.58854        20.40608         0.61847
C         24.32971        21.05113         0.31916
C         25.84703        23.47954         0.87296
C         24.01895        22.37805         0.57486
C         25.69932        24.81923         0.29580
C         24.35978        25.35900        -0.17267
C         25.59529        27.35141        -0.97898
C         24.41029        26.67232        -0.89671
C         25.60489        28.79791        -0.58027
C         24.46019        29.57660        -1.21104
C         25.68746        31.71564        -0.44684
C         24.46559        31.04449        -0.98794
C         25.69684        33.19972        -0.50921
C         24.44394        33.86266        -0.57163
C         25.72136        36.04509        -0.44670
C         24.42063        35.32286        -0.18826
C         25.71780        37.47047        -0.67494
C         24.45999        38.18336        -0.86201
C         25.66666        40.26760        -1.45528
C         24.43016        39.56910        -1.07551
C         25.67160        41.77395        -1.63482
C         24.33016        42.53306        -1.65984
C         25.64348        44.73685        -1.21710
C         24.39230        43.89932        -0.96631
C         25.74814        45.90230        -0.20974
C         24.45499        46.64695        -0.01245
C         25.75017        48.64007         0.89502
C         24.45368        47.96684         0.48465
C         25.70200        50.15635         0.59555
C         24.48914        50.81043         1.17094
C         25.77380        52.86311         1.74727
C         24.50609        52.13937         1.60816
C         25.78943        54.17949         2.17723
C         24.56370        54.89985         2.69840
C         25.78220        57.04762         2.53874
C         24.51698        56.32137         2.08737
C         25.76352        58.39579         2.85841
C         24.58042        59.23632         2.66246
C         24.48779        60.57630         3.22144
C         26.88396         8.47068         2.37908
C         28.13102        10.56089         1.93227
C         26.93725         9.80929         1.88814
C         28.17200        11.91132         1.52784
C         26.97590        12.56442         1.07261
C         28.21708        14.67309         0.82047
C         27.01176        13.93923         0.71749
C         28.23935        16.12602         0.68728
C         26.95582        16.79828         0.50388
C         28.21542        19.04366         0.68740
C         26.94762        18.28937         0.42540
C         28.11860        20.46626         1.16207
C         26.81766        21.19113         1.00331
C         28.18951        23.27144         0.32843
C         26.91465        22.65381         0.70932
C         28.19971        24.62336        -0.14633
C         26.92258        25.28711        -0.42382
C         28.13092        27.35286        -1.51293
C         26.86900        26.61653        -1.09387
C         28.06986        28.83413        -1.14474
C         26.93879        29.48242        -0.77499
C         28.22542        31.69391        -0.59290
C         26.96518        30.93515        -0.43471
C         28.21142        33.13644        -0.10865
C         26.91703        33.88817        -0.39155
C         28.20212        36.03085        -0.27928
C         26.93688        35.32584        -0.37018
C         28.09299        37.51229         0.06501
C         26.92062        38.17382        -0.62022
C         28.20116        40.36757        -0.88222
C         26.98828        39.54835        -1.11941
C         28.19032        41.76249        -1.03242
C         26.96939        42.51706        -1.41104
C         28.16523        44.66074        -0.99134
C         26.96639        43.97542        -1.15441
C         28.19513        46.08507        -0.71908
C         26.89042        46.84094        -0.61937
C         28.17647        48.77034         0.31134
C         26.98133        48.06626         0.24401
C         28.19698        50.14448         0.79664
C         26.99498        50.83861         0.99417
C         28.25272        52.86118         1.64901
C         27.00199        52.17955         1.44417
C         28.23961        54.22405         2.04770
C         27.02928        54.90580         2.27480
C         26.98348        56.29717         2.58309
C         29.39720        12.64352         1.49884
C         30.76114        14.65767         0.92506
C         29.42858        13.97687         1.14150
C         30.71195        16.16577         1.04455
C         29.42948        16.84913         0.90342
C         30.63852        19.01870         1.11122
C         29.46566        18.29649         0.96668
C         30.66771        20.46449         0.97323
C         29.42248        21.27081         1.30351
C         30.64247        23.41101         0.62266
C         29.37699        22.60771         0.59196
C         30.61780        24.67608        -0.19558
C         29.40973        25.32456        -0.47337
C         30.62473        27.39725        -1.06089
C         29.40408        26.67118        -1.01799
C         30.60336        28.85027        -1.45997
C         29.26747        29.63845        -1.59011
C         30.59158        31.82706        -1.39588
C         29.32526        31.06981        -1.06966
C         30.60120        33.25689        -0.88151
C         29.44761        33.90855        -0.51693
C         30.69760        36.05403        -0.37234
C         29.42675        35.35314        -0.33551
C         30.71882        37.52196        -0.18718
C         29.40581        38.28353        -0.07800
C         30.63113        40.37912        -0.62054
C         29.40350        39.69432        -0.51941
C         30.62673        41.79198        -0.83872
C         29.40281        42.50552        -0.91052
C         30.67534        44.61512        -0.89662
C         29.44123        43.93487        -0.97059
C         30.68542        46.12777        -0.98156
C         29.38968        46.77310        -0.54467
C         30.64587        48.79727         0.20482
C         29.40481        48.12525        -0.07221
C         30.65320        50.10595         0.71027
C         29.45101        50.81887         0.98242
C         29.45893        52.16200         1.40621
C         31.87534        16.85041         1.20418
C         33.11919        19.02305         0.73079
C         31.95012        18.33782         1.40538
C         33.10223        20.39324         0.49629
C         31.84330        21.12193         0.69037
C         33.13148        23.29805         0.64728
C         31.85938        22.56237         0.22549
C         33.12865        24.72929         0.12710
C         31.92227        25.29478        -0.60432
C         33.02611        27.61562        -0.23065
C         31.82393        26.80100        -0.62774
C         33.21024        28.81749        -1.16937
C         31.89319        29.60265        -1.36499
C         33.11887        31.77528        -1.21182
C         31.81185        31.04794        -0.85004
C         33.07360        33.25969        -0.92997
C         31.88243        33.95157        -0.86097
C         33.16033        36.10315        -0.80922
C         31.89076        35.39174        -0.62807
C         33.18202        37.57404        -0.76355
C         31.93016        38.26734        -0.54948
C         33.11297        40.37887        -0.79191
C         31.88774        39.66335        -0.55383
C         33.01633        41.68557        -1.20140
C         31.85234        42.49492        -1.01116
C         33.17981        44.62203        -0.57928
C         31.92180        43.91232        -0.91615
C         33.08316        45.98662        -0.23946
C         31.89864        46.74273        -0.32790
C         31.87068        48.06582         0.09024
C         34.28298        21.12293         0.12493
C         35.55503        23.26353         0.17391
C         34.37673        22.54133         0.21483
C         35.56399        24.71223         0.61993
C         34.29759        25.43099         0.17928
C         35.53902        27.51918        -0.23223
C         34.33943        26.84106        -0.15179
C         35.55991        28.97016        -0.42346
C         34.37760        29.64007        -0.69389
C         35.61845        31.79174        -0.87553
C         34.32168        31.12558        -0.52113
C         35.58382        33.21794        -1.34253
C         34.39434        33.95594        -0.67885
C         35.57478        36.18015        -1.46027
C         34.33091        35.41789        -1.01801
C         35.66242        37.45999        -0.60389
C         34.38508        38.25426        -0.75620
C         35.73831        40.44609        -0.58339
C         34.40711        39.71410        -0.37439
C         35.84831        41.86696        -0.29744
C         34.87625        42.76685        -0.73413
C         34.45377        44.03439        -0.29252
C         36.81558        25.46192         0.26037
C         38.01792        27.58292        -0.03039
C         36.81001        26.82194        -0.02039
C         38.02607        28.99253        -0.15856
C         36.79497        29.69692        -0.34330
C         38.05477        31.83633        -0.60073
C         36.81036        31.11285        -0.62470
C         38.05668        33.26610        -0.79784
C         36.88004        33.94316        -1.10077
C         38.18325        36.13726        -1.16799
C         36.88345        35.37633        -1.40721
C         38.11485        37.60580        -0.99156
C         36.92777        38.26282        -0.83340
C         36.88915        39.69713        -0.69580
C         39.23655        29.74383        -0.10701
C         40.47441        31.89774        -0.11558
C         39.25290        31.13773        -0.28301
C         40.48376        33.25411        -0.21523
C         39.29703        34.00415        -0.57489
C         39.32544        35.37905        -0.65353
O         30.22054        38.02991         1.12189
O         23.58066        18.67971         1.65928
O         10.06403        29.37530         1.75170
O         21.04169        50.30436         2.41310
O         23.81009        16.51029        -1.08346
O         24.41126        12.75366        -0.85008
O         24.80222        30.45213        -2.31110
O         12.67284        42.27205         1.23988
O         19.27406        17.60555         1.28305
O         22.37358        26.73682        -2.28811
O         27.76954        18.83369        -0.69347
O         13.56055        20.52072        -1.94893
O         22.94794        20.32075        -1.69315
O         22.38564        54.21813         3.68953
O         27.27224        20.70010         2.33574
O         31.36584        29.25122        -2.67203
O         24.73544        23.03533         1.58289
O         26.67579        25.39739        -1.89804
O         12.77505        33.53219         1.63544
O         34.11225        42.27497        -1.81280
O         37.77152        35.70891        -2.53286
O         15.31020        29.17489         1.50553
O         19.91848        42.61754        -2.49134
O         26.44776        39.61810        -2.49392
O         23.98235        59.08305         1.31586
O         19.66986        34.47682        -2.47720
O         21.38356        42.92443        -2.41117
O         17.99131        32.18703        -2.23774
O         21.51825        22.88831        -2.11656
O         18.06440        36.85018        -2.44210
O         12.25287        38.96098        -1.88538
O         26.48742        42.16514        -2.77649
O         26.23150        31.22485         0.84315
O         24.70377         8.53680         0.29812
O         24.92423        25.69051         1.17094
O         13.23035        39.82042         1.43842
H         12.88381        40.58813         1.95434
O         25.32313        28.73179         0.84900
H         25.58979        29.59933         1.24672
O         30.79876        46.44884        -2.41305
H         31.63591        46.05286        -2.73645
O         19.86802        51.26289        -0.96302
H         19.79148        50.40638        -1.46121
O         30.69167        31.93729        -2.84325
H         30.21607        31.15468        -3.23366
O         19.59332        46.55760         1.52700
H         19.59800        45.60104         1.74661
O         35.40295        33.24846        -2.78395
H         34.66262        32.62236        -3.00695
O         32.76348        28.15627         1.10163
H         32.44770        27.42274         1.67113
O         32.20240        18.52668         2.85300
H         32.17166        19.49316         3.02497
O         35.34718        36.58612        -2.82437
H         36.15808        36.35541        -3.33534
O         33.63088        28.27006        -2.43745
H         32.88303        28.39603        -3.07023
O         11.89407        35.92497         1.74151
H         12.38866        35.28198         2.30244
O         20.68805        31.76561         1.20230
H         20.80990        30.83349         1.51840
O         29.02776        29.82971        -3.02236
H         28.84104        28.93845        -3.41129
O         27.74624        37.53582         1.48743
H         28.59984        37.45407         1.97568
O         34.15463        31.34658         0.93366
H         34.97105        31.03212         1.37772
O         29.58645        21.57263         2.73006
H         28.67481        21.53931         3.11917
O         24.28589        35.31905         1.29492
H         25.14813        35.02956         1.66549
O         22.77504        29.12170        -2.82046
H         22.31858        28.31145        -3.15303
O         17.02602        17.86755        -2.34032
H         16.25481        17.33038        -2.62196
O         35.70240        37.05450         0.79699
H         35.54685        37.86910         1.32874
O         13.49429        16.02472        -1.13583
H         13.73746        16.35554        -2.02426
O         23.28012        12.17716         2.56766
H         22.43624        11.90315         2.98493
O         20.87703        28.89323         1.30954
H         20.08773        28.41305         1.67296
O         20.69456        46.18880        -1.99001
H         21.22662        45.47575        -2.40867
O         32.15207        24.91265        -2.02216
H         31.33290        25.12754        -2.51794
O         13.07394        27.62992        -1.79602
H         13.11366        26.74005        -2.20972
O         28.28032        33.06663         1.35458
H         27.56142        32.45149         1.63634
O         25.59675        50.24438        -0.86197
H         25.36004        51.16682        -1.09516
O         21.75520        38.40890        -2.42642
H         21.63248        37.53859        -2.86088
O         18.97491        51.91410         2.56903
H         19.66120        51.34591         2.99451
O         18.37589        27.49562         1.59394
H         17.55012        27.90394         1.93870
O         26.18283        14.56754        -1.40189
H         25.75743        13.76187        -1.77785
O         21.85738        16.76263         1.99855
H         20.99773        17.17916         2.24759
O         34.32548        39.68206         1.11637
H         33.43565        39.33366         1.34758
O         24.76182        55.06434         4.11997
H         23.90686        54.82909         4.55533
O         31.76990        14.11291         1.77987
H         31.60432        14.42939         2.69142
O         34.69277        33.90744         0.75288
H         33.97285        34.37280         1.22900
O         19.58281        48.52259        -1.60980
H         20.11845        47.83091        -2.07503
O         18.51300        53.52981        -0.67934
H         18.91925        52.74935        -1.13824
O         28.16565        27.29490        -2.97590
H         27.78102        26.42200        -3.22672
O         31.80769        22.46627        -1.21787
H         32.65998        22.09903        -1.53521
O         20.81018         9.90464        -0.90625
H         21.67404        10.20277        -1.26352
O          9.64994        39.79629        -2.58629
H         10.53614        39.46964        -2.87002
O         26.57462        47.39053        -1.93067
H         27.33729        47.92961        -2.22768
O         24.54510        56.19763         0.64420
H         24.51233        57.11209         0.28253
O         31.58300        30.97610         0.56410
H         32.44515        30.84395         1.03006
O         16.76008        47.91189         1.84482
H         17.57020        47.49060         2.20933
O         22.12241        43.32142         1.16763
H         22.49058        44.06999         1.68178
O         15.40979        41.79714        -2.47170
H         16.17400        41.37557        -2.92089
O         26.10018        45.31434         1.07018
H         26.15021        46.04140         1.73039
O         10.91737        26.99096         2.12246
H         10.40435        27.68755         2.59582
O         22.31325        52.37515        -0.27325
H         22.17997        53.31104        -0.53356
O         16.06714        49.06282        -1.57093
H         15.32194        49.56590        -1.96105
O         35.56129        24.67480         2.11203
H         35.58328        25.60534         2.42313
O         22.31713        39.49099         1.03722
H         21.61192        38.93148         1.44547
O         33.31071        31.57792        -2.63820
H         32.43094        31.76717        -3.06940
O         20.77531        37.37606         1.00484
H         21.51178        36.76949         1.24292
O         25.49134        45.24364        -2.55756
H         25.17350        44.49234        -3.11463
O         16.97682        20.89807        -2.64237
H         17.02702        19.94864        -2.90353
O         23.44992        49.57371         2.87903
H         22.53412        49.45888         3.23547
O         24.07244        42.88630        -3.05231
H         24.33108        42.12433        -3.61401
O         25.91593        48.42914         2.32116
H         25.11929        48.81124         2.77218
O         33.17589        23.30918         2.09406
H         34.03441        23.73090         2.35557
O         30.74937        23.88738         1.99884
H         30.54498        23.11580         2.58732
H          5.05498        31.11885        -0.95550
H          5.07606        33.57111        -1.24707
H          7.42268        26.89439        -0.25091
H          6.21629        29.02755        -0.52016
H          6.27962        35.71347        -1.22931
H          7.45769        37.87416        -1.20012
H          9.84027        22.59809         0.07190
H          8.59977        24.75295        -0.13247
H          8.62166        40.05343        -0.80920
H          9.78796        42.24770        -0.38934
H         12.34712        18.25769         0.10975
H         11.05753        20.50430         0.15952
H         11.10151        44.46692        -0.61389
H         12.33798        46.58549        -0.18332
H         14.80891        13.96441         0.10695
H         13.93214        16.38775         0.83459
H         13.56357        48.67654         0.04668
H         14.83941        50.85069         0.48679
H         17.34039         9.82058         1.07712
H         16.09518        11.81305         0.39604
H         16.08262        52.92886         0.83191
H         17.38975        55.06968         1.48515
H         19.73581         5.85776         2.59318
H         18.56643         7.82893         1.80078
H         18.59818        56.94897         2.47215
H         19.82124        59.02876         2.92395
H         23.00818         2.91447         4.51353
H         20.90578         3.93914         3.66643
H         23.26289        62.27583         3.65413
H         21.11148        61.15049         3.22857
H         25.18905         4.07882         4.24974
H         26.48634         6.05748         3.57223
H         26.66939        58.86483         3.27368
H         25.39474        61.03410         3.64198
H         27.79391         8.04802         2.83197
H         29.05526        10.08131         2.28791
H         29.19400        54.76125         2.15274
H         27.92895        56.82843         2.77439
H         30.33891        12.13129         1.74563
H         31.07614        14.40832        -0.12873
H         31.61864        50.59753         0.90298
H         30.41971        52.68081         1.53968
H         32.81357        16.28089         1.29785
H         34.06685        18.46852         0.64616
H         33.98183        46.48723         0.15356
H         32.79775        48.53601         0.45289
H         35.20504        20.54797        -0.05824
H         36.51102        22.77521        -0.06955
H         36.71625        42.21810         0.28238
H         35.13622        44.62733         0.33638
H         37.77541        24.96546         0.47389
H         38.97373        27.05679         0.11483
H         39.05793        38.17411        -1.03083
H         37.85572        40.22472        -0.74080
H         40.18233        29.21749         0.09232
H         41.39728        31.35290         0.13168
H         41.41798        33.81283        -0.05679
H         40.22692        35.92801        -0.34121
