         420
 CSIRO Nanostructure Databank - Neutral Graphene Oxide Data Set
C         28.52284        27.72167        -2.61520
C         28.35438        29.05019        -2.14302
C         27.18569        29.81109        -2.48619
C         28.08214        31.81198        -1.39862
C         27.09166        31.15144        -2.16482
C         28.02295        33.20249        -1.10147
C         26.91509        34.01984        -1.51296
C         27.83372        36.02677        -0.46357
C         26.82924        35.36125        -1.21884
C         27.83111        37.42786        -0.22839
C         26.64711        38.20733        -0.41919
C         27.85596        40.29857        -0.02641
C         26.64962        39.57142        -0.28836
C         27.88871        41.72516         0.03044
C         26.68975        42.51164        -0.13347
C         27.90032        44.60784         0.21311
C         26.69331        43.87455        -0.01776
C         27.90983        45.97213         0.37355
C         30.71427        27.58340        -1.55619
C         29.66050        27.00282        -2.30887
C         30.57508        28.93400        -1.11995
C         29.37966        29.64782        -1.37992
C         30.37746        31.71751        -0.32877
C         29.12320        30.96838        -0.69716
C         30.29518        33.10509        -0.06711
C         29.08134        33.81131        -0.36637
C         30.26058        35.97996         0.41439
C         28.94002        35.20966         0.03171
C         30.27220        37.42675         0.25313
C         29.04985        38.12562         0.09939
C         30.30012        40.24132         0.33918
C         29.06394        39.55676         0.13532
C         30.29917        41.65836         0.46884
C         29.11997        42.38622         0.29644
C         30.21570        44.55224         1.15929
C         29.23409        43.89002         0.16397
C         30.33015        46.02302         0.77112
C         29.14951        46.67630         0.50628
C         33.18829        24.74342        -1.27551
C         32.04393        25.45099        -1.54843
C         32.91407        27.45183        -0.44484
C         31.89189        26.83259        -1.17242
C         32.85402        28.85868        -0.17499
C         31.67586        29.59339        -0.47276
C         32.77118        31.65649         0.28414
C         31.60363        30.99364        -0.15375
C         32.73020        33.09434         0.71982
C         31.48547        33.83495         0.30454
C         32.75267        35.95857         0.31800
C         31.51246        35.22493         0.35528
C         32.76158        37.36488         0.27005
C         31.52053        38.11133         0.27861
C         32.79556        40.23400         0.38878
C         31.53481        39.51996         0.33898
C         32.81920        41.60226         0.61869
C         31.56082        42.33211         0.87783
C         32.87206        44.59830         1.39427
C         31.55850        43.79004         1.24429
C         32.83467        45.99600         0.81647
C         31.61268        46.70240         0.72144
C         32.84866        48.78187         0.42477
C         31.65276        48.09951         0.47880
C         35.71466        23.33198        -0.88370
C         35.44617        24.58614        -0.26412
C         34.25346        25.28987        -0.50260
C         35.28493        27.38404         0.44859
C         34.00953        26.61387         0.18598
C         35.15898        28.77897         0.77832
C         33.98606        29.54373         0.35450
C         35.23564        31.67791         0.63492
C         33.98429        30.94809         0.48261
C         35.23264        33.09328         0.40149
C         34.00555        33.82380         0.37795
C         35.19812        35.94032        -0.02257
C         33.99039        35.22386         0.23659
C         35.22671        37.34294        -0.04111
C         34.00559        38.08063         0.15926
C         35.27415        40.19764         0.11927
C         34.02941        39.49006         0.22440
C         35.31299        41.61166         0.21636
C         34.10533        42.31011         0.72645
C         35.31814        44.54574         0.51071
C         34.13784        43.79835         0.99265
C         35.31621        45.93902         0.50433
C         34.06601        46.67854         0.65964
C         35.33379        48.81184         0.52648
C         34.07715        48.09196         0.51749
C         35.37075        50.21134         0.71208
C         37.96110        23.12401         0.07801
C         36.89381        22.62928        -0.70340
C         37.79675        24.42230         0.73618
C         36.49391        25.15290         0.62158
C         37.76240        27.40174         1.07142
C         36.47430        26.66601         0.91795
C         37.75684        28.81916         0.98398
C         36.49648        29.56971         1.04605
C         37.71333        31.69919         0.63217
C         36.47174        31.00775         0.75242
C         37.70790        33.10080         0.30514
C         36.46207        33.75653         0.15400
C         37.70711        35.89035        -0.56149
C         36.41244        35.15662        -0.29518
C         37.69071        37.36301        -0.43349
C         36.47561        38.05544        -0.21058
C         37.71559        40.19415        -0.24408
C         36.48906        39.47931        -0.11188
C         37.72436        41.63130        -0.20291
C         36.51235        42.32361         0.02972
C         37.76904        44.53539        -0.07429
C         36.44628        43.81925        -0.18576
C         37.75042        45.93458         0.00157
C         36.54003        46.65780         0.24937
C         37.77758        48.81520         0.43203
C         36.55655        48.09277         0.38503
C         37.79828        50.19982         0.69527
C         36.57229        50.89129         0.81840
C         40.51814        20.39332        -0.10566
C         39.30755        21.04675        -0.12306
C         40.40621        23.15838         0.51369
C         39.20872        22.43555         0.18714
C         40.36824        24.57832         0.78247
C         39.07756        25.23650         1.02736
C         40.24464        27.41630         1.09149
C         39.02028        26.70960         1.07139
C         40.23166        28.89479         1.41114
C         38.96102        29.58277         0.96972
C         40.20495        31.73416         0.93272
C         38.93601        30.97638         0.82919
C         40.20339        33.20476         0.55988
C         38.93639        33.83429         0.14460
C         40.19779        35.86870        -0.46231
C         38.97571        35.17047        -0.29006
C         40.13861        37.28417        -1.01355
C         38.90762        38.06311        -0.57310
C         40.13147        40.22436        -0.84792
C         38.91121        39.46679        -0.51275
C         40.18528        41.66450        -0.53248
C         38.97295        42.35844        -0.31206
C         40.25104        44.45304        -0.20173
C         38.99599        43.79361        -0.21006
C         40.30603        45.92553        -0.25878
C         39.00183        46.68606        -0.24649
C         40.34467        48.75846         0.53884
C         39.04994        48.14205         0.09028
C         40.18870        49.98140         1.43767
C         39.07558        50.87285         0.91901
C         40.47908        52.87193         1.10713
C         39.22811        52.22771         0.83234
C         42.99730        20.45644         0.14841
C         41.72203        21.11705         0.13173
C         42.92275        23.30972         0.39170
C         41.65004        22.49645         0.40742
C         42.80517        24.55689         1.25069
C         41.53628        25.32003         0.95891
C         42.74246        27.47659         1.14313
C         41.49619        26.73732         1.09564
C         42.72460        28.89732         1.02619
C         41.49400        29.61726         1.00737
C         42.70517        31.72866         0.62761
C         41.48696        30.99975         0.84198
C         42.68620        33.14804         0.31068
C         41.47812        33.84807         0.18312
C         42.69167        35.87544        -0.51133
C         41.44550        35.21337        -0.26706
C         42.68177        37.26489        -1.09758
C         41.42626        38.02029        -0.76970
C         42.69834        40.20018        -0.81288
C         41.44006        39.45662        -0.97775
C         42.68203        41.59870        -0.65290
C         41.43912        42.32765        -0.50800
C         42.72726        44.44284        -0.22564
C         41.47265        43.73811        -0.28877
C         42.76552        45.84537         0.06901
C         41.56472        46.60112         0.13426
C         42.80964        48.54210         0.97914
C         41.59021        47.93784         0.59441
C         42.81229        49.91591         1.55708
C         41.52516        50.69492         1.67095
C         42.87299        52.82869         1.62821
C         41.59151        52.17013         1.49579
C         44.15560        21.12316         0.48375
C         45.32237        23.24297         1.09357
C         44.17038        22.52521         0.73283
C         45.29002        24.69377         1.22050
C         44.06669        25.37802         1.18381
C         45.22786        27.54188         1.25889
C         43.99918        26.79377         1.19429
C         45.18047        28.94967         1.14993
C         43.95292        29.62814         0.94907
C         45.18504        31.76320         0.55102
C         43.93233        31.04212         0.70652
C         45.16263        33.16437         0.20203
C         43.93505        33.82848         0.05867
C         45.16205        35.90251        -0.58458
C         43.90905        35.21171        -0.34580
C         45.15334        37.33408        -0.76554
C         43.94160        38.04325        -0.82794
C         45.16005        40.18082        -0.82326
C         43.92742        39.46594        -0.81409
C         45.14882        41.61122        -0.75517
C         43.92415        42.31467        -0.59482
C         45.19394        44.43494        -0.38340
C         43.94641        43.73267        -0.40248
C         45.22934        45.82721        -0.05775
C         44.01927        46.51548         0.23190
C         45.29211        48.57396         0.70503
C         44.04602        47.88487         0.67236
C         45.37654        49.97010         1.18746
C         44.11258        50.67576         1.62420
C         44.04257        52.14984         1.67997
C         47.74321        23.28452         1.41687
C         46.58095        22.58174         1.28431
C         47.77129        24.72064         1.41508
C         46.51352        25.43551         1.39260
C         47.71358        27.59890         1.70357
C         46.47066        26.84384         1.44164
C         47.71882        29.09307         1.53541
C         46.40786        29.75695         1.27737
C         47.66936        31.92917         0.89668
C         46.39681        31.12903         0.76380
C         47.62794        33.16556         0.03992
C         46.41867        33.82251        -0.11026
C         47.62394        35.90775        -0.74328
C         46.38423        35.21568        -0.52905
C         47.62593        37.32106        -0.93665
C         46.39440        38.03924        -0.86311
C         47.61358        40.14579        -1.17129
C         46.38926        39.45740        -0.92970
C         47.55929        41.60749        -1.32241
C         46.36477        42.34276        -0.89109
C         47.66827        44.45613        -0.67672
C         46.40262        43.73964        -0.69500
C         47.69170        45.86580        -0.32797
C         46.48048        46.53331        -0.03631
C         47.70479        48.68087         0.16134
C         46.49088        47.93755         0.28176
C         47.67229        50.11104         0.34103
C         46.57171        50.74190         0.81620
C         50.23496        24.75729         1.07913
C         48.99814        25.40803         1.36341
C         50.27703        27.60384         1.34489
C         49.03765        26.85704         1.61351
C         50.28856        29.10788         1.54505
C         48.98218        29.80224         1.16016
C         50.24334        31.93336         0.77806
C         48.95586        31.11692         0.81260
C         50.18548        33.15156        -0.13024
C         48.86173        33.68418        -0.65235
C         50.04899        35.84980        -1.06770
C         48.85656        35.19213        -0.78802
C         50.08393        37.27368        -1.22188
C         48.84894        38.01891        -1.17879
C         50.07049        40.18763        -1.56746
C         48.81676        39.43636        -1.34085
C         50.12295        41.60494        -1.25028
C         48.89985        42.38363        -1.31283
C         50.14649        44.44798        -0.59593
C         48.86361        43.78433        -0.88988
C         50.17503        45.92246        -0.52326
C         48.93123        46.59118        -0.31879
C         50.17043        48.69900        -0.23808
C         48.92980        48.00914        -0.13809
C         51.40622        25.46100         0.99951
C         52.72512        27.59400         1.03105
C         51.44655        26.89509         1.14205
C         52.72094        28.99261         0.82772
C         51.49898        29.75635         0.91396
C         52.67935        31.73425         0.07364
C         51.47786        31.08545         0.54922
C         52.61296        33.02439        -0.47032
C         51.34283        33.72205        -0.59367
C         52.56464        35.83937        -1.27017
C         51.28160        35.03199        -1.38881
C         52.58162        37.22480        -1.18551
C         51.33000        37.94294        -1.27916
C         52.60674        40.08247        -0.98927
C         51.38341        39.38227        -1.49298
C         52.61950        41.56980        -0.91068
C         51.42222        42.33444        -1.44207
C         52.69085        44.45115        -0.92343
C         51.42297        43.71106        -0.81774
C         52.66498        45.94170        -1.11742
C         51.38228        46.62271        -0.64125
C         51.34728        48.03232        -0.51321
C         55.15756        27.55710         0.91201
C         53.95492        26.89763         1.09131
C         55.17494        28.93414         0.58528
C         53.94510        29.65529         0.52259
C         55.15903        31.64846        -0.23523
C         53.93455        31.02071         0.11739
C         55.13351        32.97274        -0.79708
C         53.83067        33.57795        -1.06478
C         55.10061        35.80804        -1.39292
C         53.82046        35.11765        -1.45341
C         55.09315        37.24694        -1.24614
C         53.85933        37.94981        -1.17147
C         55.10279        40.09134        -0.97042
C         53.89214        39.36162        -1.04642
C         55.11486        41.56229        -0.88678
C         53.91141        42.28677        -0.90724
C         55.14461        44.42678        -0.80321
C         53.89808        43.72507        -0.91328
C         55.11342        45.86118        -0.61630
C         53.96028        46.57177        -0.66828
C         56.39478        29.61548         0.31020
C         56.38321        30.93093        -0.08548
C         56.28840        33.67404        -1.16008
C         56.27594        35.05204        -1.42193
C         56.30171        37.98033        -1.16448
C         56.30981        39.35572        -1.02636
C         56.33204        42.29757        -0.83002
C         56.33945        43.68772        -0.76531
O         38.33828        24.51750         2.07775
O         50.86654        39.83037        -2.79215
O         52.36118        40.77620         0.29439
O         29.32292        35.48934         1.41060
O         39.66240        46.39729        -1.51409
O         45.01884        50.11002         2.62938
O         48.42306        27.21534         2.93305
O         36.07778        25.63842         1.93428
O         34.43853        42.84725         2.08606
O         53.71210        34.04982        -2.44981
O         40.64291        39.89546        -2.19577
O         36.92875        35.35548        -1.67772
O         31.48394        42.79271         2.31556
O         48.13383        42.11402        -2.56086
O         47.01491        29.72830         2.67216
O         35.63620        29.13998         2.12573
O         39.87198        48.95220        -0.82766
O         42.14713        50.12527         2.86898
O         40.18316        32.76215         1.97691
O         50.85796        43.77187         0.54169
O         29.62064        44.53886         2.46830
H         30.02449        43.78652         2.96148
O         51.11477        34.64381        -2.79715
H         51.98507        34.26005        -3.07725
O         33.48869        26.29781         1.53095
H         34.24947        25.91391         2.03852
O         39.99199        37.16414        -2.48661
H         40.00307        38.09623        -2.82098
O         51.61326        42.51799        -2.87288
H         51.36778        41.66300        -3.30492
O         43.08598        23.76136        -0.99062
H         43.18215        22.96385        -1.55256
O         47.63496        32.41001         2.29027
H         47.47670        31.60773         2.84786
O         36.08769        43.93483        -1.63339
H         36.91211        43.80569        -2.15100
O         32.67909        33.06133         2.19750
H         31.83569        32.62933         2.45235
O         39.71320        49.48023         2.71412
H         40.49201        49.46716         3.32186
O         42.68058        37.07945        -2.56560
H         41.74998        36.84315        -2.81913
O         40.21972        28.96353         2.88215
H         39.37966        28.56059         3.19043
O         29.80698        44.11624        -1.16310
H         29.15278        43.81148        -1.82641
O         50.39504        32.46560         2.13344
H         50.39379        31.69534         2.74572
O         28.49560        30.60652         0.60562
H         27.67563        30.10908         0.39699
O         50.39149        29.33182         2.99090
H         49.69625        28.76438         3.40624
O         48.79033        33.14848        -2.02567
H         49.50933        33.59890        -2.54091
O         33.00686        44.85134         2.81437
H         33.14055        43.96955         3.23373
O         42.68019        24.09927         2.62879
H         42.54781        24.88381         3.20115
O         52.61988        46.14216        -2.58956
H         53.34988        45.61546        -2.98047
H         27.72474        27.26262        -3.21610
H         26.39913        29.33269        -3.08648
H         26.23045        31.71754        -2.54630
H         26.10280        33.56560        -2.09519
H         25.96791        35.93127        -1.59411
H         25.69861        37.69552        -0.63269
H         25.70079        40.11049        -0.40750
H         25.73397        42.00280        -0.31342
H         25.74759        44.43292        -0.08706
H         26.97034        46.54238         0.32202
H         29.74150        25.96857        -2.66799
H         29.12183        47.76278         0.34605
H         33.26350        23.71557        -1.65596
H         31.24867        24.95353        -2.11821
H         32.83209        49.86968         0.27940
H         30.72273        48.67313         0.38411
H         34.95537        22.89029        -1.54149
H         34.43663        50.77497         0.83330
H         37.01192        21.66961        -1.22479
H         36.56860        51.96956         1.02847
H         40.56962        19.31251        -0.30035
H         38.39209        20.47620        -0.33100
H         40.55562        53.95809         0.95405
H         38.39174        52.85594         0.49432
H         43.02806        19.37424        -0.04419
H         42.87840        53.92865         1.65460
H         45.08457        20.54248         0.57362
H         44.98234        52.70244         1.81522
H         48.68312        22.73139         1.54426
H         46.62050        21.48449         1.29797
H         48.56514        50.70603         0.10854
H         46.59148        51.82520         0.99412
H         50.25490        23.67305         0.90689
H         50.20588        49.78927        -0.11574
H         52.33305        24.91907         0.77213
H         52.26985        48.61691        -0.62886
H         56.10685        27.00752         0.98347
H         53.96779        25.82159         1.30943
H         56.06070        46.36898        -0.37812
H         53.99572        47.65896        -0.50852
H         57.34483        29.06871         0.39429
H         57.33543        31.42601        -0.31687
H         57.26777        33.18164        -1.09618
H         57.24704        35.55547        -1.52063
H         57.26369        37.45342        -1.20921
H         57.27795        39.86942        -0.96602
H         57.29518        41.77110        -0.80790
H         57.29769        44.22013        -0.67673
