         276
 CSIRO Nanostructure Databank - Neutral Graphene Oxide Data Set
C        -11.08054         0.38037         1.96991
C        -10.18267         1.44873         1.52813
C         -8.62696         0.61091         0.18405
C         -7.49617         1.36266         0.11307
C         -6.31142         0.71929        -0.51082
C         -5.14640         1.53496        -0.97310
C         -3.81531         0.82245        -1.15647
C         -2.60134         1.60021        -1.57713
C         -1.29736         0.85264        -1.54708
C         -0.11657         1.52710        -1.41445
C          1.19009         0.79963        -1.57370
C          2.48716         1.47266        -1.26501
C          3.63726         0.76670        -1.05281
C          4.86752         1.43337        -0.41922
C          6.20716         0.77176        -0.84113
C          7.40448         1.45962        -0.17696
C          8.75384         0.74622        -0.27731
C          9.85715         1.52059         0.43324
C         10.93889         0.72999         1.02144
C         -9.57758         2.47032         2.18550
C         -8.24400         3.14340         1.80273
C         -7.57313         2.84830         0.39431
C         -6.15358         3.47223         0.35136
C         -5.16233         3.01786        -0.69422
C         -3.91276         3.81204        -0.93633
C         -2.66145         3.09863        -1.40507
C         -1.38152         3.79270        -1.04561
C         -0.12011         2.98204        -1.06939
C          1.16301         3.72959        -1.24339
C          2.45295         2.96377        -1.28024
C          3.74114         3.68669        -1.05804
C          4.96369         2.92460        -0.70205
C          6.09414         3.71880        -0.02005
C          7.39403         2.92900         0.04511
C          8.72572         3.66220        -0.15739
C          9.82931         2.87612         0.51333
C         -8.24246         4.64661         1.98815
C         -7.14534         5.44005         1.65037
C         -5.97711         4.83480         0.91929
C         -5.00631         5.79776         0.23149
C         -3.75385         5.15205        -0.32847
C         -2.57965         5.90057        -0.55547
C         -1.39631         5.28408        -1.02274
C         -0.09893         6.00615        -0.92145
C          1.16513         5.20016        -0.89900
C          2.48305         5.90762        -1.03726
C          3.68981         5.12043        -0.54436
C          4.99828         5.86592        -0.80666
C          6.27513         5.12547        -0.58328
C          7.50122         5.88221        -0.16226
C          8.63059         5.13029         0.18870
C         -7.06801         6.79928         2.02163
C         -5.78693         7.49913         2.01795
C         -4.65896         6.90874         1.20448
C         -3.55648         7.83696         0.80728
C         -2.53010         7.34120        -0.15988
C         -1.27468         8.15620        -0.35301
C         -0.06346         7.52686        -1.00525
C          1.26664         8.26660        -0.89069
C          2.49199         7.37835        -0.80051
C          3.74409         8.06920        -0.34561
C          5.02284         7.33290        -0.51113
C          6.33119         8.03863        -0.82806
C          7.47207         7.29200        -0.16067
C         -5.65596         8.93153         2.37976
C         -4.50267         9.61373         2.24234
C         -3.21886         8.92587         1.81587
C         -2.10270         9.81719         1.33518
C         -1.14655         9.40395         0.46095
C          0.09785        10.15728         0.31853
C          1.23189         9.54453        -0.09431
C          2.37156        10.08869        -0.91982
C          3.69909         9.59329        -0.27870
C          5.04024        10.20665        -0.63127
C          6.20773         9.53769        -0.64080
C        -10.97164        -0.91734         1.54210
C         -9.86484        -1.58559         0.85665
C         -8.56684        -0.82082         0.66373
C         -7.46998        -1.54715        -0.10404
C         -6.13825        -0.78766        -0.23367
C         -5.15577        -1.34943        -1.39333
C         -3.80404        -0.67721        -1.19776
C         -2.58140        -1.42257        -1.71544
C         -1.34003        -0.63751        -1.30738
C         -0.06911        -1.37996        -1.03684
C          1.20064        -0.70378        -1.48152
C          2.49019        -1.53450        -1.53117
C          3.80646        -0.69554        -1.51434
C          4.98265        -1.38661        -0.81238
C          6.13416        -0.71083        -0.55311
C          7.37006        -1.40037        -0.06578
C          8.56496        -0.61054         0.44919
C          9.84511        -1.48046         0.50370
C         10.95542        -0.61885         1.06591
C         -9.85180        -2.96430         0.77342
C         -8.68159        -3.75586         0.43143
C         -7.45059        -3.02309         0.04446
C         -6.19462        -3.79202         0.18167
C         -5.01330        -2.86353        -1.77203
C         -3.76690        -3.61027        -1.41651
C         -2.59625        -2.91507        -1.28794
C         -1.32950        -3.63820        -0.94263
C         -0.01148        -2.87908        -0.68587
C          1.24805        -3.55307        -1.25800
C          2.46490        -2.81866        -0.74609
C          3.59193        -3.47914        -0.43954
C          4.97562        -2.88750        -0.52180
C          5.75381        -3.12378         0.79824
C          7.21691        -2.75465         0.55886
C          8.31020        -3.25831         1.43740
C          9.53628        -2.69031         1.38603
C         -8.62987        -5.12815         0.33272
C         -7.42175        -5.86169        -0.06971
C         -6.15589        -5.12868        -0.10919
C         -4.78254        -5.77051        -0.24438
C         -3.92762        -5.14054        -1.45674
C         -2.55042        -5.84717        -1.57842
C         -1.28074        -5.12252        -1.20974
C          0.04695        -5.85858        -1.47535
C          1.24886        -5.04736        -0.99801
C          2.32551        -5.68407        -0.48068
C          3.66224        -4.97670        -0.35023
C          4.46854        -5.46241         0.85796
C          5.55534        -4.53269         1.54108
C          6.85825        -5.30502         1.78369
C          7.99152        -4.44098         2.33344
C         -7.43764        -7.22252        -0.25156
C         -6.23952        -7.92920        -0.83201
C         -4.90628        -7.28684        -0.45297
C         -3.72470        -8.04921        -0.93407
C         -2.49583        -7.32958        -1.37723
C         -1.19300        -8.12533        -1.25687
C          0.00507        -7.27306        -0.89213
C          1.11584        -7.88201        -0.40035
C          2.44959        -7.19573        -0.60788
C          3.62301        -7.82134         0.16298
C          4.60439        -6.94006         0.89873
C          5.87888        -7.61708         1.36496
C          6.90577        -6.64597         1.90680
C         -6.16813        -9.42490        -0.57911
C         -5.06416       -10.14753        -0.82623
C         -3.75105        -9.54224        -1.27372
C         -2.55175       -10.09591        -0.51159
C         -1.36597        -9.38995        -0.43659
C         -0.22082        -9.88934         0.23593
C          1.02566        -9.21335         0.21678
C          2.11793        -9.76356         0.88781
C          3.43720        -9.14227         0.90986
C          4.36056        -9.45692         2.03422
C          5.48513        -8.75953         2.27864
O         -5.05241         3.81698        -1.90652
O         -3.50195         0.02225         0.04519
O         -4.05216        -7.96707         0.51344
O          1.33773        -3.25415        -2.70755
O          4.44455         7.53415         0.83727
O         -2.54226        -6.73009        -2.72667
O          1.84008         9.21160        -2.00097
O          2.69710         6.76753        -2.15806
O          5.80340         5.42169        -1.93065
O         -1.48298        -4.62739         0.14017
O          1.78773         3.44855        -2.51961
O          5.10441        -4.27131         2.81452
O         -9.84108         1.27545         0.16938
O          1.11659        -0.02618        -2.78169
O         -2.75218         2.49502        -2.72230
O          7.67082        -2.61192        -0.82856
O          4.10500        -9.02801        -0.41866
O         -5.39992         3.67663         1.60610
O         -6.21369         1.20197        -1.90049
O         -3.66772         8.18225        -0.59239
O         -0.83188        -0.77524         0.06603
O          4.31853        -5.41319        -1.52478
O         -7.78351        -2.32472        -1.26919
O         -0.79873         3.22778         0.20506
O          0.55396         5.56661         0.36828
O         -5.84874        -3.32139        -2.52679
O          7.27178         1.99746         1.17671
O         -1.02294         8.23028        -1.80823
O          4.22102        -0.55215        -2.90640
O          3.77443        -6.21458         1.87421
O          4.71429         3.30069        -2.07344
O         -4.70756         6.58489         2.60305
O          3.47392         4.98672         0.87705
H          3.75745         5.82586         1.31480
O          4.71204         1.27428         1.00794
H          4.85165         0.32819         1.24222
O          5.63481        -3.57430        -1.58764
H          5.10348        -3.48390        -2.40716
O          5.72031         3.96407         1.35138
H          5.62975         3.08427         1.78724
O         -4.66600        -5.43408        -2.63628
H         -4.19920        -6.14899        -3.13069
O          9.16173        -5.21222         2.58146
H          9.58923        -5.41214         1.72378
O          0.18612        -6.00808        -2.90927
H          1.08355        -6.39223        -3.05990
O          0.24367        -2.93343         0.73121
H         -0.44569        -2.39809         1.18347
O          9.11136         0.60264        -1.65993
H          8.28855         0.43909        -2.18148
O         -8.34809         3.54302        -0.59597
H         -8.19144         3.12365        -1.46805
O          2.40137        -2.20349        -2.86991
H          3.42691        -0.29973        -3.43154
O          6.59408         7.91579        -2.25545
H          6.49079         6.96078        -2.50470
O         -5.61353        -0.85353         1.10391
H         -4.72307        -0.42514         1.14538
O          2.73330        -7.37652        -2.02473
H          3.53651        -6.80050        -2.19248
O          8.28968        -0.34804         1.84792
H          7.96455         0.57255         1.96824
O          5.24376        -2.11851         1.69818
H          5.00805        -2.62619         2.53448
O          3.52190         9.95669         1.11960
H          4.13084         9.38680         1.64226
O         -4.02767        -5.52457         0.95787
H         -3.73152        -6.40611         1.30264
O         -3.55138        -9.77478        -2.67615
H         -2.64813        -9.44570        -2.91278
O         -0.90665        -8.62204        -2.60030
H         -0.76628        -7.82081        -3.16405
O         -5.10098        -3.16418         0.68421
H         -4.45117        -3.85193         0.98719
O         -2.61050        -1.39635        -3.15564
H         -3.54232        -1.47003        -3.46178
O          8.96794         3.61948        -1.60044
H          9.19675         2.68853        -1.84013
O          6.42552         0.95601        -2.25646
H          5.69126         0.49518        -2.74390
O         -8.09927        -0.69672         2.04572
H         -7.11867        -0.55731         2.03667
O          6.48710        -8.18453         0.17326
H          7.19964        -8.79533         0.45182
O         10.26600        -1.93024        -0.79262
H          9.50958        -2.42560        -1.18748
O         -6.30121        -7.74928        -2.28162
H         -7.21994        -7.92090        -2.57491
O         -5.74436         6.39614        -0.86153
H         -5.70342         5.77169        -1.62335
O         -5.61171        -0.88187        -2.67655
H         -6.32339        -1.50650        -2.96221
O         -2.66595         8.27652         2.99591
H         -3.32236         7.59974         3.29537
O         -7.39493         2.60564         2.84994
H         -6.50522         3.03607         2.79485
H         11.82241        -1.13104         1.51223
H         11.78147         1.29557         1.45068
H         10.64384         3.41704         1.02031
H          9.53361         5.64900         0.54782
H          8.39576         7.83764         0.09063
H          7.14116        10.10948        -0.76479
H          5.06828        11.30838        -0.62746
H          2.36895        11.16539        -1.20064
H          0.11745        11.21022         0.63656
H         -1.91299        10.72777         1.92514
H         -4.46445        10.67842         2.51821
H         -6.56543         9.44521         2.72772
H         -7.95330         7.30251         2.43907
H         -9.05625         5.11073         2.56890
H         -9.81739         2.60387         3.25271
H        -11.89554         0.62533         2.66994
H        -11.75454        -1.60898         1.89856
H        -10.77076        -3.51500         1.03330
H         -9.53620        -5.72234         0.52797
H         -8.37825        -7.78374        -0.14050
H         -7.08827        -9.93622        -0.25289
H         -5.08617       -11.24012        -0.68538
H         -2.63239       -11.06718         0.00352
H         -0.28920       -10.85697         0.75702
H          1.96060       -10.67068         1.49371
H          4.07058       -10.28950         2.69470
H          6.13144        -9.02949         3.12768
H          7.85025        -7.09800         2.25791
H          7.63461        -4.04672         3.32441
H         10.34635        -3.11020         2.00467
