         344
 CSIRO Nanostructure Databank - Neutral Graphene Oxide Data Set
C          1.39244         3.51299        -0.58402
C          0.16330         4.18921        -0.60862
C          1.31383         6.34172        -0.60197
C          0.12194         5.57579        -0.63065
C          1.29941         7.78986        -0.60010
C          0.09397         8.53395        -0.62695
C          1.31500        10.64273        -0.53126
C          0.10654         9.91897        -0.63105
C          1.34498        12.11027        -0.62638
C          0.19686        12.85490        -1.00894
C          1.39419        14.97803        -0.84122
C          0.23118        14.26389        -1.04670
C          1.49889        16.47641        -1.03270
C          0.18476        17.20732        -0.95829
C          1.16335        19.19440         0.21070
C          0.04676        18.43189        -0.44555
C          1.25696        20.65478        -0.19611
C          0.18604        21.33005        -0.79213
C          1.30000        23.47504        -0.45261
C          0.21430        22.71562        -0.92562
C          1.26314        24.93035        -0.50543
C          0.18181        25.64462        -0.98590
C          1.30861        27.80666        -0.71212
C          0.16676        27.06492        -1.02269
C          1.36704        29.23030        -0.89638
C          3.86709         3.54166        -0.66174
C          2.59041         4.23042        -0.55453
C          3.79334         6.39839        -0.51154
C          2.56280         5.65961        -0.54049
C          3.77485         7.78511        -0.56094
C          2.53044         8.50114        -0.54942
C          3.76533        10.62572        -0.14030
C          2.53271         9.92692        -0.43154
C          3.65545        12.05425         0.31942
C          2.54067        12.78240        -0.38703
C          3.62484        14.90248         0.36394
C          2.70056        14.24410        -0.68124
C          3.73054        16.39776         0.19751
C          2.57276        17.11374        -0.16231
C          3.63904        19.17977         0.57589
C          2.50072        18.49188         0.11510
C          3.55077        20.64357         0.78195
C          2.39662        21.38687         0.20897
C          3.66091        23.54712         0.38548
C          2.43716        22.79607         0.08593
C          3.67027        24.94227         0.26812
C          2.36433        25.68950         0.19233
C          3.69827        27.79730        -0.15773
C          2.49448        27.11734        -0.27432
C          3.75316        29.22661        -0.37037
C          2.53704        29.91396        -0.71031
C          6.34314         3.48565        -0.92812
C          5.04703         4.20025        -0.60360
C          6.33368         6.32913        -0.85061
C          5.09038         5.66409        -0.22080
C          6.35161         7.84779        -0.61221
C          5.03791         8.56889        -0.57052
C          6.21905        10.67338         0.16438
C          4.98448         9.97993        -0.12014
C          6.20162        12.07550         0.39543
C          4.96556        12.80696         0.31771
C          6.15297        14.93127         0.69103
C          4.95345        14.18746         0.40670
C          6.10197        16.31895         0.89745
C          4.89351        17.06706         0.66380
C          6.06756        19.23132         1.09364
C          4.86149        18.49603         0.79333
C          6.11426        20.62186         0.99573
C          4.85709        21.39243         0.94774
C          6.12121        23.48660         0.64969
C          4.89572        22.83580         0.63759
C          6.16531        24.99412         0.74107
C          4.88423        25.68767         0.33980
C          6.18218        27.78693         0.14368
C          4.91665        27.06969         0.14692
C          6.19120        29.24594         0.01143
C          4.95637        29.91598        -0.23363
C          8.71842         3.49067        -0.08933
C          7.56821         4.20721        -0.41568
C          8.70089         6.31062         0.12846
C          7.56567         5.61561        -0.34648
C          8.65886         7.76344         0.32511
C          7.51618         8.50324         0.03020
C          8.61533        10.62909         0.64114
C          7.45557         9.94095         0.26958
C          8.63842        12.05367         0.79199
C          7.40444        12.79593         0.68179
C          8.60770        14.92001         1.12180
C          7.39102        14.20347         0.86359
C          8.61672        16.31005         1.26712
C          7.27865        16.97240         1.58619
C          8.60816        19.22170         1.34369
C          7.29068        18.49460         1.47570
C          8.59220        20.64302         0.95573
C          7.36403        21.34129         0.91687
C          8.60702        23.45387         0.64254
C          7.36244        22.76379         0.74247
C          8.64323        24.89527         0.50539
C          7.37839        25.58582         0.03696
C          8.64668        27.81830         0.09987
C          7.37217        27.09580         0.15991
C          8.65179        29.29931         0.23123
C          7.38849        29.95614         0.07171
C         11.11689         3.45885         0.52422
C          9.89772         4.16833         0.31247
C         11.05589         6.26287         1.05769
C          9.85998         5.58360         0.45292
C         11.07107         7.75127         0.84485
C          9.86829         8.43161         0.73137
C         11.11317        10.61048         0.87042
C          9.82371         9.88061         1.11692
C         11.10854        12.01937         0.90118
C          9.85649        12.72207         0.99163
C         11.13466        14.89507         1.07260
C          9.87191        14.15569         1.42972
C         11.13046        16.31485         1.12324
C          9.85748        17.03943         1.26567
C         11.06059        19.18584         1.00535
C          9.86275        18.44977         1.20353
C         11.06334        20.57830         0.83406
C          9.82555        21.31898         0.78098
C         11.09455        23.43178         0.54158
C          9.83130        22.73361         0.64207
C         11.10608        24.88901         0.63109
C          9.82981        25.57804         0.61871
C         11.06286        27.77996         0.95155
C          9.89271        27.03942         0.38469
C         11.06946        29.26766         0.82867
C          9.84163        29.97065         0.40209
C         13.57698         3.43940         0.71523
C         12.35232         4.13341         0.67727
C         13.55199         6.28782         0.71659
C         12.35747         5.57691         0.75104
C         13.54877         7.75302         0.71136
C         12.32478         8.45749         0.84857
C         13.55581        10.60155         0.64677
C         12.32854         9.89098         0.79304
C         13.55285        12.02970         0.63148
C         12.33627        12.74167         0.80914
C         13.56754        14.89431         0.71103
C         12.33318        14.18704         0.86766
C         13.58919        16.31958         0.82532
C         12.35204        17.00836         1.04187
C         13.55002        19.10900         0.50140
C         12.37348        18.49898         1.29611
C         13.51034        20.61302         0.43093
C         12.31173        21.29280         0.61289
C         13.61149        23.47027         0.50729
C         12.28673        22.73222         0.49406
C         13.51134        24.92119         0.03144
C         12.28756        25.59897         0.58923
C         13.60085        27.75805         0.65495
C         12.37467        27.00107         1.12110
C         13.56183        29.21322         0.69850
C         12.38297        29.92456         0.78214
C         16.03217         3.46566         0.91601
C         14.81809         4.13630         0.79947
C         16.02167         6.29038         0.56287
C         14.80248         5.58765         0.71229
C         15.96585         7.70498         0.03659
C         14.74667         8.45919         0.48675
C         16.00876        10.59645         0.32099
C         14.77446         9.87700         0.48126
C         15.99468        12.00796         0.31938
C         14.78778        12.73003         0.44445
C         15.96619        14.89675         0.20833
C         14.77594        14.18280         0.44754
C         16.01840        16.29795         0.39738
C         14.85027        17.00379         0.72461
C         16.06730        19.20821         0.29866
C         14.89236        18.50951         0.99026
C         15.82393        20.41629        -0.52027
C         14.62582        21.25813        -0.30431
C         15.92660        23.59054        -0.51875
C         14.66364        22.80232        -0.35750
C         16.03182        24.97536        -0.05720
C         14.83044        25.64792         0.24325
C         16.10969        27.76864         0.64271
C         14.78829        27.06628         0.44623
C         16.01860        29.27746         0.55932
C         14.82064        29.92607         0.63036
C         18.53955         3.47641         0.73711
C         17.30525         4.21635         1.17764
C         18.46378         6.30937         0.31180
C         17.25196         5.62881         0.64265
C         18.47069         7.73221         0.11092
C         17.25502         8.46810         0.19255
C         18.48636        10.57725        -0.08602
C         17.25313         9.86960         0.18484
C         18.47768        11.99347        -0.23097
C         17.30302        12.77567         0.32049
C         18.40583        14.88067        -0.52099
C         17.11488        14.11816        -0.39058
C         18.47711        16.22076        -0.29985
C         17.39235        16.96961         0.45850
C         18.33319        18.97757        -0.91733
C         17.33409        18.44105         0.04132
C         18.09775        20.18290        -1.54676
C         16.80025        20.78184        -1.41295
C         18.34291        23.02189        -0.99165
C         16.94423        22.93669        -1.21961
C         18.50627        25.05372        -0.63043
C         17.27245        25.77724        -0.27803
C         18.30059        28.15327        -0.64256
C         17.26192        27.15067        -0.12050
C         18.42890        29.37298         0.25546
C         17.27490        29.97355         0.67787
C         19.64391         4.12778         0.32005
C         20.86812         6.25871        -0.10347
C         19.67559         5.57591         0.18986
C         20.88366         7.64313        -0.25916
C         19.69954         8.40484        -0.15720
C         20.79746        10.53707        -0.85981
C         19.67502         9.84146        -0.35773
C         20.73374        11.89632        -1.10980
C         19.59196        12.65353        -0.76520
C         20.85999        14.83700        -0.97907
C         19.54724        14.12385        -1.17431
C         20.90300        16.17511        -0.83195
C         19.68226        16.94928        -0.69672
C         20.64567        18.98193        -1.79078
C         19.59111        18.28385        -1.07249
C         20.45539        20.18115        -2.37974
C         19.16190        20.95084        -2.32612
C         20.58517        23.07085        -1.84072
C         19.38250        22.34915        -1.67076
C         20.64188        24.46738        -1.80716
C         19.58042        25.35116        -1.46839
C         20.83792        28.22291        -0.73113
C         19.65504        27.64161        -1.05574
C         20.87567        29.38084         0.12550
C         19.71534        29.94684         0.56024
O         10.76271        28.54466         2.15988
O         14.14653        22.04325        -1.46655
O          5.85091         8.52520        -1.82547
O          9.55612        27.37374        -1.01031
O          3.96875        21.10235         2.10503
O         16.56870        21.95509        -2.16636
O         18.69518        23.85116         0.09633
O         19.66812        26.63540        -2.04238
O          7.94229        19.05642         2.66598
O         17.22468        19.35057         1.21391
O          6.27035         6.08018        -2.27274
H          5.99862         6.93257        -2.69403
O         12.58843        26.83118         2.56212
H         12.05699        27.54716         2.99407
O         13.45108        18.65617        -0.88187
H         12.81217        19.23268        -1.35192
O         10.89597         6.10177         2.52878
H         11.75015         6.35064         2.94207
O          6.30820         2.13243        -0.46428
H          6.23621         2.14653         0.51191
O         16.70009        13.78076        -1.76002
H         16.30739        14.58372        -2.16341
O          9.89665        14.07721         2.91211
H          9.07095        13.62756         3.19383
O          7.27884        25.29838        -1.38533
H          8.02595        25.76427        -1.82277
O         15.80076         7.56215        -1.42879
H         16.59374         7.09095        -1.76311
O         17.61889        13.08047         1.70549
H         17.74656        12.23474         2.18308
O         18.71718        21.16296        -3.68283
H         17.82642        21.58110        -3.63366
O          7.05627        16.67339         3.00473
H          7.55232        17.36336         3.50682
O         15.06119        18.71652         2.40701
H         16.01184        18.93468         2.55829
O         19.29281        14.11077        -2.61663
H         18.38092        13.74596        -2.72413
O          6.35724        25.28751         2.16011
H          5.58028        24.93968         2.64716
O          0.83689        19.21883         1.63852
H          1.54124        19.72274         2.10072
O         13.30109        24.86196        -1.41224
H         13.14651        25.77337        -1.73700
O          3.23842        11.97596         1.72937
H          3.01414        12.90400         1.99931
O          9.66325         9.85453         2.60141
H         10.29986         9.19231         2.94783
O         12.50929        18.70517         2.72283
H         13.41863        18.44394         2.99981
O          3.44015        14.36675        -1.96202
H          2.99187        13.78396        -2.61219
O         14.11047        23.44489         1.86326
H         13.49914        23.96629         2.42592
O         17.80108        16.90664         1.84962
H         17.76666        17.82207         2.21008
O         16.43545        27.49787         2.05822
H         15.61085        27.61680         2.57768
O         17.41174         4.32391         2.65739
H         16.59143         4.76239         2.96931
O          5.28064         5.73854         1.22375
H          4.49340         5.34154         1.65235
O          1.91413        25.79089         1.60593
H          1.05361        26.26276         1.59726
O          1.99274        16.66592        -2.40308
H          2.76205        16.05208        -2.50637
O         17.69460        28.64176        -1.89167
H         17.92014        27.99259        -2.59382
O          2.96441        14.70881         1.65983
H          3.47497        15.21071         2.33117
H          1.41667         2.41413        -0.60188
H         -0.77342         3.61494        -0.62858
H         -0.85461         6.07653        -0.66819
H         -0.87341         8.01576        -0.66398
H         -0.85135        10.45427        -0.67961
H         -0.75072        12.34624        -1.22707
H         -0.71188        14.79029        -1.25117
H         -0.69160        16.72651        -1.41814
H         -0.95381        18.88966        -0.41767
H         -0.69876        20.77848        -1.13584
H         -0.65295        23.21431        -1.37784
H         -0.70088        25.12229        -1.38096
H         -0.73175        27.57976        -1.39147
H          0.45228        29.76158        -1.19743
H          3.85647         2.46211        -0.87912
H          2.57158        31.00421        -0.85163
H          6.42371         3.43354        -2.04930
H          4.96950        31.00775        -0.37323
H          8.71838         2.39435        -0.17837
H          7.36675        31.05495         0.01523
H         11.11349         2.36127         0.44529
H          9.85491        31.07132         0.39664
H         13.57938         2.33961         0.69309
H         12.41750        31.02416         0.76428
H         16.04183         2.36772         0.98972
H         14.79453        31.02622         0.65108
H         18.54394         2.38081         0.83994
H         17.30466        30.95560         1.17539
H         20.55610         3.56909         0.05991
H         21.80445         5.69027        -0.20030
H         21.84155         8.13969        -0.46502
H         21.71668         9.99233        -1.11350
H         21.59589        12.38796        -1.57981
H         21.79878        14.27158        -1.06197
H         21.86988        16.69804        -0.78696
H         21.61475        18.47489        -1.90686
H         21.26943        20.61597        -2.97785
H         21.46758        22.55015        -2.24041
H         21.53396        24.94140        -2.24256
H         21.77204        27.82736        -1.15113
H         21.84826        29.81759         0.38843
H         19.73619        30.84600         1.19285
