         420
 CSIRO Nanostructure Databank - Neutral Graphene Oxide Data Set
C         27.99220        27.38540         0.17281
C         27.95086        28.80592         0.16156
C         26.74765        29.51436         0.41505
C         27.89787        31.64615         0.09927
C         26.72863        30.89119         0.39911
C         27.88174        33.11347         0.14774
C         26.67739        33.79689         0.46942
C         27.80877        35.94736         0.48908
C         26.67689        35.18313         0.68498
C         27.78694        37.38530         0.81727
C         26.59264        38.17032         0.50341
C         27.85095        40.25055         0.80962
C         26.63165        39.52597         0.55952
C         27.79048        41.72027         0.96684
C         26.58745        42.49654         0.60712
C         27.88421        44.58026         0.48109
C         26.63587        43.84202         0.47089
C         27.89198        45.97256         0.28223
C         30.37801        27.41042        -0.36093
C         29.16824        26.71614        -0.08846
C         30.36490        28.83102        -0.37485
C         29.13920        29.53672        -0.12363
C         30.31020        31.70037        -0.56617
C         29.09004        30.95788        -0.18892
C         30.31225        33.20992        -0.42281
C         29.05828        33.85462        -0.01766
C         30.35145        36.01339         0.32439
C         29.04734        35.35307        -0.11058
C         30.37024        37.38385         0.65616
C         29.10589        38.11803         0.93280
C         30.34427        40.29210         0.83598
C         29.07960        39.59063         0.85277
C         30.36974        41.69841         0.80233
C         29.12249        42.46785         0.95226
C         30.34100        44.57351         0.40626
C         29.11710        43.89325         0.58770
C         30.32496        45.97907         0.23902
C         29.09954        46.66116         0.21017
C         32.86552        24.58542        -0.85992
C         31.67526        25.26076        -0.58556
C         32.82211        27.38074        -0.81797
C         31.62093        26.67143        -0.58350
C         32.77411        28.83838        -0.98415
C         31.56627        29.57982        -0.62141
C         32.81922        31.73338        -0.53652
C         31.60166        30.98526        -0.57583
C         32.80035        33.16836        -0.24706
C         31.59436        33.90373        -0.17765
C         32.82630        35.96797         0.41168
C         31.58505        35.28864         0.19236
C         32.83339        37.39867         0.63993
C         31.58453        38.10835         0.74172
C         32.79990        40.26957         0.89247
C         31.58474        39.55808         0.84765
C         32.82475        41.68424         0.73769
C         31.59430        42.40639         0.66866
C         32.81641        44.48503         0.25717
C         31.60141        43.82695         0.46530
C         32.77094        45.88523        -0.30592
C         31.63991        46.73064         0.28111
C         32.79971        48.65260        -0.76213
C         31.62929        48.07985        -0.40854
C         35.40654        23.10995        -1.33902
C         35.36162        24.60753        -1.47215
C         34.06695        25.27698        -1.04104
C         35.31091        27.42625        -0.87996
C         34.05911        26.69836        -0.95926
C         35.32526        28.83932        -0.80536
C         34.09451        29.61992        -1.02040
C         35.28737        31.68024        -0.34516
C         34.06577        31.04256        -0.63136
C         35.25108        33.05269         0.18676
C         34.01507        33.83582         0.09592
C         35.31499        35.90428         0.60055
C         34.04850        35.22505         0.37646
C         35.27916        37.32856         0.97080
C         34.03916        38.08380         0.84669
C         35.33859        40.27215         0.83204
C         34.07014        39.54089         1.25736
C         35.31810        41.67441         0.65460
C         34.06542        42.39837         0.62358
C         35.30471        44.52309         0.23313
C         34.05730        43.78906         0.35900
C         35.30901        45.90686        -0.03014
C         34.08503        46.63353        -0.24100
C         35.34809        48.74721        -0.74656
C         34.06743        47.98361        -0.52464
C         35.32054        50.19224        -0.31661
C         37.81074        23.05411        -0.79718
C         36.55170        22.42003        -1.11849
C         37.74112        24.48676        -0.45902
C         36.54719        25.28730        -0.82143
C         37.76748        27.37927        -0.31149
C         36.52009        26.65454        -0.64685
C         37.78833        28.86314        -0.38459
C         36.51088        29.57374        -0.58693
C         37.80990        31.66375        -0.32619
C         36.52721        30.97438        -0.42830
C         37.76719        33.13661        -0.23954
C         36.56581        33.79955         0.33191
C         37.81143        35.97829         0.45912
C         36.54463        35.26853         0.44740
C         37.83207        37.38263         0.62452
C         36.61146        38.11109         0.97440
C         37.78681        40.26060         0.54219
C         36.57213        39.57728         0.77375
C         37.78420        41.68861         0.46847
C         36.54583        42.39673         0.51040
C         37.78452        44.53613         0.41750
C         36.55071        43.82274         0.39382
C         37.79738        45.96466         0.28809
C         36.55003        46.65623         0.00680
C         37.76446        48.82615         0.18182
C         36.54796        48.02560        -0.19595
C         37.75639        50.24232        -0.31651
C         36.47730        50.89968        -0.24519
C         40.30733        20.27407        -0.91819
C         39.11470        20.93968        -0.92211
C         40.29295        23.07937        -0.55771
C         39.03702        22.36697        -0.73397
C         40.31727        24.47918        -0.40585
C         39.05971        25.21782        -0.22167
C         40.23817        27.36364        -0.49932
C         39.06699        26.67830        -0.42517
C         40.30133        28.81615        -0.81148
C         38.98998        29.58125        -0.96106
C         40.30163        31.73925        -0.43698
C         39.02964        31.03137        -0.51056
C         40.32141        33.14749        -0.25504
C         39.06295        33.90566        -0.23431
C         40.28795        35.96736         0.33608
C         39.04825        35.29646         0.24425
C         40.29345        37.40459         0.49257
C         39.05494        38.10629         0.52718
C         40.27217        40.22060         0.44683
C         39.04951        39.53645         0.51009
C         40.30987        41.69402         0.14151
C         39.00741        42.41248         0.39961
C         40.29580        44.51866         0.47073
C         39.02343        43.80986         0.46316
C         40.29784        46.01257         0.63756
C         39.01383        46.68109         0.23990
C         40.23802        48.75001        -0.32598
C         39.04105        48.06777        -0.02374
C         40.20315        50.13916        -0.66029
C         38.96181        50.88445        -0.63316
C         40.16967        52.90246        -1.31342
C         38.99419        52.27440        -0.99728
C         42.78476        20.28467        -0.75584
C         41.55510        20.96784        -0.75660
C         42.78033        23.09068        -0.45617
C         41.54358        22.38412        -0.59544
C         42.77476        24.51624        -0.33473
C         41.54074        25.18979        -0.33670
C         42.78579        27.40750        -0.05106
C         41.49375        26.65518        -0.15572
C         42.83510        28.86961        -0.29654
C         41.57410        29.57495        -0.61098
C         42.78776        31.72768        -0.36549
C         41.54246        31.04317        -0.46776
C         42.79496        33.15317        -0.24120
C         41.54107        33.86178        -0.13523
C         42.75934        36.03686         0.04336
C         41.50792        35.26427         0.10136
C         42.78277        37.35074         0.79378
C         41.50887        38.12437         0.57693
C         42.77403        40.26254         0.57625
C         41.50710        39.52719         0.54541
C         42.77570        41.65790         0.60502
C         41.47308        42.37420         0.85015
C         42.76599        44.54278         0.41534
C         41.49935        43.85169         0.53738
C         42.75246        45.95280         0.08713
C         41.53267        46.66540         0.07327
C         42.69583        48.64441        -0.75384
C         41.49771        48.01446        -0.33513
C         42.61808        50.00913        -1.29956
C         41.39011        50.79386        -1.08946
C         42.64591        52.86626        -1.57671
C         41.39818        52.17376        -1.36745
C         43.98393        20.97301        -0.59493
C         45.26927        23.10335        -0.27921
C         44.01579        22.37364        -0.44334
C         45.27690        24.50858        -0.15920
C         44.02492        25.25264        -0.19234
C         45.26886        27.42863         0.20722
C         44.03310        26.63151        -0.10518
C         45.30142        28.76011        -0.55618
C         44.02088        29.55173        -0.36698
C         45.26636        31.70051        -0.31353
C         44.03589        31.00509        -0.39060
C         45.24786        33.12407        -0.23129
C         44.03712        33.83711        -0.19301
C         45.31333        36.00911         0.29414
C         44.07261        35.31543        -0.12131
C         45.28048        37.44250         0.50067
C         44.04951        38.13260         0.55799
C         45.24638        40.27951         0.62736
C         44.01922        39.54865         0.57023
C         45.21677        41.69734         0.64856
C         43.99533        42.39102         0.60459
C         45.22770        44.54293         0.25543
C         43.98007        43.84426         0.47061
C         45.21508        45.91439        -0.12934
C         43.96916        46.61585        -0.24528
C         45.18504        48.67303        -0.92917
C         43.93905        47.97673        -0.66693
C         45.19210        50.04363        -1.29192
C         43.92214        50.75675        -1.57743
C         43.84550        52.22533        -1.57553
C         47.70880        23.08510        -0.10630
C         46.51502        22.41427        -0.24304
C         47.75292        24.50266        -0.00350
C         46.51853        25.22009        -0.02871
C         47.74876        27.35073         0.05623
C         46.54340        26.64377         0.03322
C         47.75332        28.80757        -0.02351
C         46.55978        29.53278        -0.25032
C         47.74847        31.65688        -0.11453
C         46.54622        30.97167        -0.26174
C         47.79953        33.13079        -0.04836
C         46.50380        33.89669        -0.15573
C         47.76229        35.92398         0.64825
C         46.51304        35.29637         0.32480
C         47.82319        37.42449         0.43659
C         46.50796        38.16634         0.58712
C         47.73312        40.33421         0.74725
C         46.49686        39.56800         0.67531
C         47.73944        41.71649         0.72600
C         46.46448        42.47686         0.96464
C         47.69146        44.53665         0.19900
C         46.46721        43.87325         0.40638
C         47.68129        45.90959        -0.19677
C         46.44438        46.59596        -0.36555
C         47.65306        48.67445        -0.94508
C         46.42421        47.98450        -0.74688
C         47.62108        50.04626        -1.27552
C         46.41823        50.71397        -1.43937
C         50.23980        24.53553         0.27210
C         48.99136        25.21812         0.13891
C         50.22005        27.35913         0.29901
C         48.99261        26.64025         0.15201
C         50.20535        28.79093         0.31934
C         48.99374        29.48148         0.08931
C         50.13661        31.59390         0.62589
C         49.07573        30.94849        -0.22685
C         49.85039        32.82393         1.20280
C         48.88211        33.75464         0.73050
C         50.19497        35.86801         1.39024
C         48.92421        35.16666         0.93874
C         50.24556        37.38274         1.37410
C         48.94414        38.11948         1.18220
C         50.26928        40.30137         1.06002
C         48.97287        39.60343         1.09654
C         50.23002        41.77235         1.03969
C         48.96638        42.47266         0.72184
C         50.20123        44.54911         0.17682
C         48.95862        43.83947         0.41355
C         50.16932        45.91136        -0.26407
C         48.92186        46.60348        -0.41958
C         50.14176        48.62384        -1.06413
C         48.90834        47.96607        -0.80323
C         51.42090        25.21916         0.40132
C         52.68107        27.36883         0.46412
C         51.45678        26.64926         0.41173
C         52.66578        28.80254         0.45555
C         51.43413        29.52242         0.49560
C         52.67462        31.63352         0.88170
C         51.42310        30.93318         0.74474
C         52.81032        33.05512         1.13805
C         51.70610        33.86083         1.59652
C         52.74760        35.99375         1.21274
C         51.52677        35.19453         1.28906
C         52.71189        37.44438         0.95720
C         51.50818        38.14274         1.11053
C         52.72787        40.32376         0.84383
C         51.47489        39.59774         1.01030
C         52.77128        41.70924         0.65384
C         51.54316        42.52053         0.83178
C         52.64741        44.55563        -0.07639
C         51.45634        43.89529         0.28986
C         52.63335        45.90089        -0.47365
C         51.38759        46.59427        -0.55719
C         51.33690        47.95844        -0.96115
C         55.12517        27.36864         0.40065
C         53.96309        26.70415         0.59807
C         55.10280        28.78393        -0.11163
C         53.88075        29.52527         0.37330
C         55.12755        31.63197         0.34711
C         53.89057        30.92784         0.54576
C         55.13535        33.05071         0.30511
C         53.98087        33.74612         0.77213
C         55.17571        35.94859         0.35391
C         54.06544        35.20475         0.95829
C         55.14331        37.38095         0.38456
C         53.96402        38.09500         0.72483
C         55.28388        40.29596         0.41743
C         53.99179        39.56238         0.84439
C         55.17273        41.71664         0.05220
C         53.97518        42.38458         0.24004
C         54.93715        44.34272        -1.02389
C         53.99949        43.89593         0.10484
C         55.01000        45.84890        -1.04562
C         53.89781        46.56330        -0.79195
C         56.37607        29.53669         0.11813
C         56.36082        30.88199         0.24270
C         56.25232        33.80744        -0.15954
C         56.23849        35.19247        -0.19361
C         56.29895        38.11379        -0.09149
C         56.35163        39.46515        -0.14859
C         56.35700        42.42256        -0.42031
C         56.28399        43.68015        -0.89816
O         47.40595        33.76960        -1.31420
O         38.23985        24.77426         0.90130
O         54.97919        40.03431         1.82086
O         41.98815        27.09389         1.17266
O         43.41226        36.01454        -1.25783
O         38.23327        33.76653        -1.47450
O         50.14787        36.63588         2.64074
O         53.68855        35.66552         2.29078
O         30.17620        32.56749        -1.75550
O         28.41562        42.18590         2.20999
O         48.62830        38.86625         2.38026
O         37.82010        28.22378         0.92158
O         36.00736        37.64260         2.23133
O         28.39804        37.63405         2.13982
O         50.95703        42.39373         2.16616
O         41.14867        29.09016        -1.99273
O         35.97572        33.13887         1.48360
O         43.15742        50.13024        -2.66348
O         50.66891        33.21224         2.26652
O         33.37801        29.29735        -2.24763
O         28.95235        35.65169        -1.57514
H         29.36849        34.90206        -2.05634
O         40.36722        46.23131         2.10503
H         41.16108        45.75563         2.43164
O         54.96102        28.67576        -1.58228
H         54.10109        28.23521        -1.75420
O         41.21590        42.26144         2.28232
H         41.99380        42.61854         2.75966
O         38.68848        29.62062        -2.38479
H         39.54832        29.76393        -2.84666
O         42.79761        36.95812         2.20873
H         42.75307        37.77465         2.74979
O         37.66120        48.97483         1.66292
H         37.88921        48.10290         2.05555
O         35.47789        24.86828        -2.91828
H         35.33261        25.82897        -3.05745
O         45.35141        28.41910        -1.97491
H         45.27300        29.24877        -2.49091
O         31.95031        46.94887         1.68386
H         31.19271        47.41234         2.09701
O         35.54404        48.78914        -2.21383
H         35.46019        47.87039        -2.54708
O         48.21934        37.57243        -0.97627
H         47.59111        37.04745        -1.51840
O         40.57351        41.81196        -1.28983
H         39.86580        41.33330        -1.76963
O         45.17435        27.79111         1.61811
H         44.86050        27.00891         2.11850
O         54.55786        44.40671         1.34477
H         54.01812        44.06053         2.08623
O         32.45808        45.71778        -1.72457
H         33.13118        45.12064        -2.11241
O         49.49831        31.06764        -1.63738
H         48.76640        30.73012        -2.19557
O         46.42707        42.66002         2.43531
H         46.68741        41.80725         2.84626
O         34.10389        39.54040         2.72891
H         34.83469        38.92519         2.98746
O         54.33950        43.89681        -2.27588
H         54.89785        44.22414        -3.01108
H         27.07211        26.82411         0.38914
H         25.82901        28.95130         0.63311
H         25.78207        31.40072         0.61853
H         25.74021        33.24832         0.61849
H         25.75706        35.66003         1.05350
H         25.67774        37.65226         0.18339
H         25.71110        40.08901         0.35736
H         25.62442        41.98173         0.48697
H         25.71413        44.40450         0.25986
H         26.94028        46.51753         0.20808
H         29.16113        25.61852        -0.07325
H         29.07762        47.75502         0.10832
H         32.84618        23.48819        -0.91110
H         30.76775        24.66664        -0.41750
H         32.81121        49.65343        -1.21822
H         30.68809        48.62878        -0.55540
H         34.49466        22.54681        -1.58496
H         34.35325        50.70343        -0.20785
H         36.51322        21.32171        -1.16241
H         36.43590        51.99122        -0.10508
H         40.32787        19.18169        -1.04479
H         38.18813        20.36406        -1.05053
H         40.17875        53.97661        -1.54818
H         38.05831        52.84947        -0.99263
H         42.79537        19.19226        -0.87996
H         42.61596        53.96452        -1.63601
H         44.91680        20.39414        -0.59553
H         44.77245        52.81576        -1.58246
H         48.63903        22.50211        -0.09201
H         46.53976        21.32015        -0.32764
H         48.55074        50.61037        -1.41958
H         46.43569        51.77552        -1.71960
H         50.26539        23.43790         0.27320
H         50.15455        49.67581        -1.37518
H         52.35593        24.65033         0.48992
H         52.26302        48.49757        -1.19681
H         56.09060        26.84980         0.49522
H         53.98830        25.64332         0.88528
H         55.95488        46.34623        -1.31352
H         53.93455        47.66041        -0.84066
H         57.32754        28.98621         0.07846
H         57.31062        31.42959         0.32895
H         57.12798        33.28034        -0.56129
H         57.10466        35.69969        -0.63846
H         57.15113        37.54802        -0.48942
H         57.20563        39.95069        -0.64119
H         57.33005        41.91436        -0.36070
H         57.18384        44.20204        -1.25843
