         244
 CSIRO Nanostructure Databank - Neutral Graphene Oxide Data Set
C          1.23229         2.27103         1.02850
C          1.19945         3.59229         0.54197
C          2.43684         1.60984         1.16072
C          2.37607         4.26007         0.19985
C          1.10790         6.40891        -0.37003
C          1.15517         7.76275        -0.29456
C          2.34580         5.59920        -0.44707
C          2.37878         8.51146        -0.41984
C          1.27440        10.62013         0.27418
C          1.19347        11.96902         0.29167
C          2.40602         9.89740        -0.28183
C          2.19859        12.80514        -0.39376
C          1.14759        14.89974         0.69649
C          1.23347        16.15811         1.14573
C          2.21262        14.34299        -0.22901
C          2.35214        17.06400         0.68435
C          2.52231        18.30321         1.52175
C          3.65841         2.27024         0.84994
C          3.63358         3.62140         0.37670
C          4.89308         1.59658         1.00327
C          4.87895         4.32319         0.16962
C          3.63708         6.32574        -0.70317
C          3.59139         7.82632        -1.02284
C          4.90647         5.71698        -0.23970
C          4.88089         8.56114        -0.72632
C          3.60159        10.63502        -0.60893
C          3.47678        12.09104        -0.80489
C          4.83861         9.99524        -0.78371
C          4.74969        12.87152        -0.99122
C          3.59053        14.79897         0.31902
C          3.64721        16.28937         0.55458
C          4.76953        14.29970        -0.50762
C          4.86330        16.92745         0.62435
C          3.72303        18.90453         1.63900
C          4.93385        18.31544         1.08628
C          6.10366         2.26419         0.77531
C          6.07854         3.64809         0.41543
C          7.36025         1.58110         0.92683
C          7.38211         4.39361         0.47865
C          6.10017         6.44685        -0.31462
C          6.09267         7.88479        -0.60505
C          7.35849         5.78625        -0.11544
C          7.32493         8.62462        -0.69300
C          6.07745        10.74910        -0.97966
C          6.03704        12.13771        -1.09063
C          7.32761         9.99049        -0.98681
C          7.25842        12.95710        -1.35231
C          6.07267        14.98423        -0.32204
C          6.08662        16.26046         0.21287
C          7.18521        14.43777        -1.07464
C          7.40790        16.96518         0.34848
C          6.11140        19.02844         1.05452
C          7.33737        18.46462         0.56063
C          8.56706         2.18370         0.59216
C          8.52634         3.54806        -0.06213
C          9.80661         1.52898         0.73671
C          9.82782         4.30846         0.02231
C          8.57486         6.41939        -0.35322
C          8.65438         7.92894        -0.41787
C          9.80443         5.68064        -0.27591
C          9.75929         8.48322        -1.34362
C          8.61134        10.69364        -1.10094
C          8.58768        12.17837        -1.29666
C          9.79933         9.99484        -1.11736
C          9.94926        12.88672        -1.23238
C          8.09652        15.40930        -1.53684
C          8.32640        16.63945        -0.81014
C         10.03911        14.03525        -0.25282
C          9.47065        17.42318        -0.95408
C          8.49796        19.19040         0.44507
C          9.72157        18.56168        -0.04501
C         11.03921         2.20254         0.56773
C         11.04136         3.62500         0.25610
C         12.25723         1.50940         0.74082
C         12.26108         4.36440         0.31890
C         11.08929         6.31986        -0.60912
C         11.11317         7.75265        -1.12966
C         12.32102         5.70888        -0.07809
C         12.37320         8.47733        -0.96692
C         11.12308        10.59886        -0.71476
C         11.19382        12.07794        -0.93662
C         12.34563         9.92821        -1.36903
C         12.37375        12.75514        -0.98270
C         11.20053        14.77906        -0.23786
C         11.34003        16.04055         0.43918
C         12.37034        14.27971        -1.07969
C         12.35195        16.93072         0.06374
C         10.95875        19.02024         0.36575
C         12.27523        18.38267         0.19022
C         13.50005         2.18218         0.77705
C         13.47213         3.66162         0.77725
C         14.72766         1.52334         0.85661
C         14.78601         4.39848         0.66310
C         13.56683         6.43804        -0.13192
C         13.57697         7.84284        -0.58314
C         14.75965         5.78276         0.16468
C         14.80710         8.53749        -0.67606
C         13.63731        10.66661        -1.09529
C         13.64839        12.03414        -0.93192
C         14.90941         9.90171        -1.31368
C         14.88025        12.77016        -0.77452
C         13.64550        14.89971        -0.58345
C         13.60575        16.31944        -0.32751
C         14.83139        14.17818        -0.60094
C         14.76634        17.07322        -0.33125
C         13.41438        19.14420         0.07646
C         14.75011        18.57852        -0.35890
C         15.98678         2.20589         0.75465
C         16.03413         3.61903         0.58071
C         17.20050         1.47491         0.73480
C         17.26137         4.27793         0.34536
C         16.04945         6.47686         0.18616
C         16.05527         7.93435        -0.24023
C         17.31163         5.69984         0.10894
C         17.34143         8.54982        -0.58535
C         16.14832        10.65864        -0.87407
C         16.13799        12.06141        -0.70532
C         17.37633         9.94707        -0.71829
C         17.36978        12.74589        -0.44637
C         16.06311        14.91437        -0.25864
C         16.05262        16.38709        -0.49418
C         17.35955        14.18891        -0.14732
C         17.32759        17.12501        -0.24142
C         15.97467        19.13707         0.34351
C         17.20714        18.50896         0.30013
C         18.43304         2.11191         0.53205
C         18.47234         3.52760         0.32391
C         19.67376         1.38196         0.52493
C         19.71685         4.19362         0.13447
C         18.51656         6.33427        -0.14817
C         18.58137         7.72677        -0.73656
C         19.75064         5.60418        -0.07911
C         19.84021         8.47832        -0.37878
C         18.62372        10.64985        -0.53563
C         18.61063        12.06285        -0.40685
C         19.84107         9.90151        -0.34084
C         19.84519        12.78686        -0.13411
C         18.62368        14.96978        -0.13740
C         18.57617        16.34091        -0.02858
C         19.86327        14.21445        -0.01729
C         19.79913        17.13666         0.18781
C         18.38839        19.10534         0.83667
C         19.64956        18.48151         0.79311
C         20.86914         2.02084         0.34183
C         20.93060         3.44345         0.14842
C         22.15086         4.12464        -0.02930
C         21.00034         6.27747        -0.18156
C         21.02825         7.74660        -0.19843
C         22.18188         5.51044        -0.16859
C         22.22691         8.46176         0.03821
C         21.05423        10.60093        -0.07467
C         21.05197        12.05339         0.02634
C         22.23602         9.84486         0.09913
C         22.24353        12.76081         0.31478
C         21.07207        14.89015         0.27584
C         21.10986        16.37399         0.38312
C         22.25052        14.13900         0.44752
C         22.14317        17.05473         1.17295
C         20.79029        19.08964         1.34596
C         21.99527        18.37136         1.54064
O         11.22036         6.62056        -2.07659
O         16.56038        14.53406         1.07530
O          2.98806         5.54809        -1.78384
O          7.92838        12.53353        -2.58665
O         14.09199         4.25841         1.96486
O          4.55284        13.99189        -1.92336
O          2.42550        12.41182        -1.78523
O         16.08229         7.53244         1.20771
O         20.78606        17.05143        -0.88678
O         16.84032        16.91622        -1.63330
O         12.33501        14.73822        -2.45463
H         11.55666        14.31906        -2.89441
O          8.26578         3.33217        -1.47543
H          9.00711         2.80920        -1.84517
O          9.36071         8.28735        -2.70773
H          9.84215         7.49191        -3.03706
O         10.19986        13.30514        -2.61381
H         10.21383        12.48269        -3.15046
O          3.43205         7.96422        -2.46567
H          3.02669         7.11933        -2.77861
O         12.14925         9.97340        -2.81130
H         12.97313         9.60792        -3.21329
O          8.75633        15.24220        -2.70175
H          8.54595        14.33859        -3.05527
O          7.65959         4.59633         1.90583
H          6.83451         4.90999         2.33142
O         18.67859         7.47087        -2.20182
H         18.77038         8.34219        -2.64389
O          3.72438        14.13714         1.62158
H          4.39651        14.62746         2.14014
O         10.36860        17.22558        -1.92437
H         10.10624        16.45450        -2.48153
O          7.99548        16.44879         1.61851
H          7.33188        16.62744         2.31888
O         10.44183        16.33323         1.40475
H         10.56400        17.25314         1.72025
O          9.06708        14.11036         0.67011
H          9.13423        14.94764         1.20274
O          9.07853         8.34585         0.93092
H          8.50396         7.89358         1.58518
O         15.01838         9.69211        -2.79028
H         15.24298        10.56112        -3.18784
O         11.20577        10.36127         0.72566
H         10.52056         9.69442         0.97575
O          1.99095        17.53757        -0.65152
H          1.92272        16.73003        -1.22371
O          2.00730        14.93015        -1.52729
H          2.54146        14.39353        -2.16562
O         14.92356        18.98402        -1.76777
H         15.66928        18.43830        -2.11873
H          0.29025         1.76448         1.27982
H          0.22485         4.08136         0.41327
H          2.46811         0.57103         1.51911
H          0.13539         5.89926        -0.32893
H          0.21063         8.31334        -0.17719
H          0.47762        10.04106         0.76150
H          0.34462        12.44086         0.80350
H          0.28075        14.28582         0.97870
H          0.44198        16.57299         1.78979
H          1.62094        18.77396         1.94350
H          4.89907         0.54302         1.31909
H          3.81897        19.86243         2.17387
H          7.35325         0.54868         1.30920
H          6.11542        20.07910         1.38523
H          9.82084         0.48397         1.08364
H          8.53114        20.24509         0.75985
H         12.23404         0.41753         0.87598
H         10.95883        19.96386         0.93990
H         14.73857         0.42412         0.91028
H         13.32381        20.24159         0.08072
H         17.17199         0.38459         0.87991
H         15.92111        20.15678         0.75735
H         19.64429         0.29292         0.67642
H         18.31157        20.10676         1.28721
H         21.80902         1.44935         0.34386
H         23.09180         3.55559        -0.03315
H         23.15758         6.00428        -0.27561
H         23.16941         7.92081         0.19685
H         23.19168        10.34760         0.29655
H         23.19172        12.22233         0.43794
H         23.19887        14.64932         0.66391
H         23.03805        16.50080         1.48963
H         20.71044        20.11269         1.74091
H         22.81259        18.86775         2.08382
