         490
 CSIRO Nanostructure Databank - Neutral Graphene Oxide Data Set
C         37.87598        49.92122         1.70102
C         36.70599        50.59638         2.00508
C         37.98039        52.56087         2.59756
C         36.75782        51.92818         2.45388
C         40.32132        48.50070         0.90910
C         40.36178        49.83422         1.48697
C         39.14525        50.54033         1.83509
C         40.46933        52.55145         2.48378
C         39.19640        51.89145         2.30611
C         40.60187        53.90659         2.81385
C         42.76885        48.31540         1.06382
C         41.44251        47.76871         0.71703
C         42.83113        49.78694         1.29169
C         41.61029        50.43395         1.69373
C         43.04327        52.56696         2.08028
C         41.68645        51.77191         2.28148
C         42.95908        54.02584         2.10799
C         41.79879        54.61432         2.63396
C         45.06488        45.66299        -0.43916
C         44.00885        46.19402         0.21349
C         45.34430        48.34982         0.73577
C         44.04158        47.54645         0.81369
C         45.08764        49.79190         0.24109
C         44.00597        50.49622         1.05230
C         45.16945        52.69157         0.84560
C         44.10350        51.91003         1.30010
C         45.19002        54.11379         1.02452
C         44.06410        54.78405         1.58570
C         45.14290        56.94020         1.18486
C         44.06364        56.20984         1.61607
C         47.42473        44.56311        -2.02394
C         47.31516        45.92902        -1.53896
C         46.27851        46.42442        -0.69052
C         47.56639        48.50089        -0.34776
C         46.39979        47.72694        -0.16290
C         47.56539        49.91746         0.00350
C         46.38737        50.56796         0.20970
C         47.57961        52.78870         0.10999
C         46.26361        52.05922         0.02214
C         47.54859        54.21231         0.23375
C         46.34131        54.88089         0.62149
C         47.50677        57.05723         0.38279
C         46.33309        56.30303         0.71716
C         47.51058        58.50989         0.38322
C         49.93775        44.46049        -2.10658
C         48.60318        43.90156        -2.26277
C         50.12188        45.84463        -2.28490
C         48.35302        46.83255        -1.84769
C         49.93741        48.69411        -1.23344
C         48.64007        48.01065        -1.13637
C         50.00450        50.01262        -0.75546
C         48.88988        50.62279         0.06958
C         49.99978        52.84974        -0.24365
C         48.78058        52.12115        -0.09491
C         49.97936        54.26650        -0.16045
C         48.74946        54.95343         0.06707
C         49.93363        57.11952        -0.13259
C         48.71548        56.38576         0.09351
C         49.89203        58.61982        -0.39345
C         48.59543        59.23808         0.04652
C         52.17305        41.52508        -1.41445
C         51.05614        42.27890        -1.52868
C         52.32228        44.41167        -1.54672
C         51.09882        43.72226        -1.72497
C         52.40672        45.83099        -1.56585
C         51.23068        46.58284        -1.82516
C         52.40937        48.69834        -1.45722
C         51.16995        48.01609        -1.58453
C         52.42069        50.10644        -1.19981
C         51.21221        50.75777        -0.83349
C         52.42867        52.90288        -0.66971
C         51.22122        52.16607        -0.54762
C         52.42557        54.31205        -0.43513
C         51.20419        54.99924        -0.23731
C         52.41726        57.17868        -0.29820
C         51.13770        56.44011        -0.21498
C         52.41502        58.67640        -0.05970
C         51.12580        59.33202         0.14922
C         52.33247        61.23439         1.08158
C         51.12474        60.57605         0.75021
C         54.84768        39.94939        -0.96600
C         54.80157        41.38920        -1.32258
C         53.51239        42.14458        -1.52374
C         54.85975        44.36067        -1.23935
C         53.54877        43.63020        -1.27185
C         54.87176        45.83290        -1.36630
C         53.66300        46.53923        -1.43775
C         54.90292        48.66335        -1.47057
C         53.66831        47.97589        -1.49984
C         54.93150        50.17378        -1.61933
C         53.63573        50.85801        -1.25458
C         54.91932        53.02251        -1.26449
C         53.64516        52.22873        -1.02572
C         54.87285        54.42386        -0.71462
C         53.69351        55.02583        -0.39759
C         54.89472        57.20682         0.06193
C         53.62853        56.41859         0.19215
C         54.89543        58.58115         0.32586
C         53.65072        59.32164         0.39983
C         54.82871        61.44662         1.22294
C         53.58859        60.63012         0.89303
C         54.88129        62.67940         0.33003
C         57.29778        39.99956        -0.52253
C         55.98532        39.31871        -0.62161
C         57.30799        41.49347        -0.69884
C         56.03845        42.19897        -1.02446
C         57.37133        44.34819        -1.21047
C         56.11552        43.60107        -1.63630
C         57.33643        45.78369        -1.21198
C         56.12755        46.51104        -1.33250
C         57.38108        48.64113        -1.17411
C         56.13131        47.95720        -1.36551
C         57.42101        50.15461        -1.13363
C         56.06171        50.75917        -0.74748
C         57.33230        52.92061        -0.47822
C         56.15356        52.27221        -0.79331
C         57.41147        54.38635        -0.50475
C         56.16404        55.20550        -0.80882
C         57.38789        57.22787         0.05163
C         56.15019        56.40274         0.15906
C         57.36920        58.57642         0.39332
C         56.12270        59.25129         0.58996
C         57.31265        61.39511         0.43927
C         56.17993        60.63619         1.18659
C         57.27297        62.88399         0.80968
C         55.99918        63.40357         0.18556
C         59.81357        37.15877        -0.72494
C         58.67209        37.79518        -1.02806
C         59.86155        39.98574        -1.07426
C         58.57923        39.24930        -0.70172
C         59.83370        41.46975        -0.83614
C         58.57231        42.17565        -1.23818
C         59.74406        44.35948        -0.39393
C         58.53997        43.65892        -0.97381
C         59.85259        45.80070        -0.84288
C         58.64903        46.49284        -1.43892
C         59.82933        48.66442        -0.89960
C         58.59274        47.96348        -1.10691
C         59.84157        50.01316        -0.56597
C         58.53229        50.68080        -0.22734
C         59.78315        52.84523        -0.05450
C         58.57751        52.19281        -0.25605
C         59.76961        54.31164         0.32439
C         58.57495        55.04551        -0.23875
C         59.87495        57.19659         0.19210
C         58.65078        56.55345        -0.40993
C         59.84731        58.55066         0.55598
C         58.63317        59.29517         0.56348
C         59.80847        61.46171         0.83409
C         58.63479        60.70574         0.69249
C         59.77460        62.89545         0.70746
C         58.57475        63.58780         0.48554
C         59.73199        65.68085        -0.02772
C         58.57845        64.95660         0.07197
C         62.22115        35.78268         0.35823
C         62.22035        37.15440         0.12079
C         60.89849        37.89007         0.05031
C         62.24930        39.99800        -0.35366
C         61.04626        39.30611        -0.45159
C         62.26301        41.41393        -0.57012
C         61.03757        42.15965        -0.67560
C         62.23508        44.32000        -0.46377
C         61.04815        43.61005        -0.57722
C         62.27004        45.75639        -0.45057
C         61.04533        46.46653        -0.76186
C         62.31637        48.62629        -0.52361
C         61.12878        47.92909        -1.15254
C         62.28466        49.99402        -0.28025
C         61.05766        50.72939        -0.32376
C         62.28220        52.85046         0.03202
C         61.03396        52.12726        -0.05635
C         62.28259        54.29455         0.07300
C         61.08347        55.03180         0.13147
C         62.32421        57.15911         0.42931
C         61.09447        56.45554         0.24019
C         62.37220        58.56050         0.64200
C         61.09610        59.23427         0.94708
C         62.37376        61.46917         0.87886
C         61.09012        60.76396         1.08713
C         62.39490        62.99059         1.07010
C         61.01604        63.67123         0.91392
C         62.24530        65.90526         0.32295
C         60.96426        65.15921         0.56627
C         62.35519        67.31826         0.76897
C         64.65549        35.71877         0.44618
C         63.41666        35.06926         0.51108
C         64.68866        37.13984         0.24367
C         63.45973        37.86280         0.08227
C         64.73149        39.97750        -0.06533
C         63.49095        39.28112        -0.08824
C         64.77849        41.39179        -0.22512
C         63.54360        42.11159        -0.58540
C         64.72615        44.27635         0.12473
C         63.53623        43.61320        -0.53517
C         64.75758        45.75741        -0.15475
C         63.50917        46.45522        -0.35310
C         64.76493        48.58144        -0.18527
C         63.52227        47.87988        -0.33652
C         64.77913        49.99189        -0.08811
C         63.49902        50.68230         0.28288
C         64.75432        52.85118        -0.08170
C         63.50902        52.16447         0.03147
C         64.76294        54.28224        -0.04190
C         63.54283        54.96875         0.11559
C         64.89171        57.17575         0.24553
C         63.55633        56.38755         0.45409
C         64.80933        58.65617         0.18529
C         63.57080        59.31120         0.53547
C         64.83737        61.49514         0.48160
C         63.53807        60.76264         0.63106
C         64.79474        62.97670         0.32015
C         63.42804        63.59772         0.08547
C         64.80026        65.78721         0.36873
C         63.49995        65.12753         0.13334
C         64.84372        67.11591         1.07714
C         63.54306        67.88732         1.01382
C         67.13916        33.13812         1.80864
C         66.02595        33.70246         1.13353
C         67.08861        35.73868         0.26085
C         65.91748        34.99999         0.58452
C         67.17539        37.13730         0.30036
C         65.92936        37.85225         0.24572
C         67.21618        39.95302         0.03692
C         65.96065        39.26142         0.10425
C         67.21919        41.34939        -0.12485
C         66.00182        42.08146        -0.18946
C         67.19753        44.23340        -0.01562
C         66.02899        43.55014        -0.13825
C         67.20792        45.69838         0.36272
C         65.95781        46.43225        -0.06074
C         67.22367        48.56281        -0.22194
C         65.99456        47.86427        -0.16292
C         67.21573        49.97979        -0.34225
C         65.98829        50.70183        -0.20231
C         67.18826        52.85425        -0.55384
C         65.98644        52.14491        -0.23938
C         67.17083        54.26439        -0.64472
C         65.99689        55.00191        -0.29322
C         67.15933        57.15831        -0.81553
C         65.98567        56.41793        -0.33711
C         67.16011        58.65620        -0.63186
C         65.97652        59.35897        -0.10068
C         67.16235        61.50035        -0.45082
C         66.05361        60.80399        -0.02181
C         67.17948        62.99585        -0.70415
C         65.96889        63.71586        -0.18449
C         67.26330        65.83572        -0.11534
C         65.97611        65.09803         0.02999
C         67.29627        67.30107         0.25869
C         66.08144        67.94978         0.78085
C         67.42199        69.93278         1.26056
C         66.19903        69.23160         1.28307
C         69.24034        32.14088         3.77091
C         69.29713        33.39271         3.12484
C         68.38936        33.72770         2.02734
C         69.58273        35.88183         1.66789
C         68.79880        34.85961         1.24024
C         69.68518        37.12528         0.84159
C         68.43666        37.84239         0.41149
C         69.71055        39.99053         0.34380
C         68.46081        39.22815         0.24504
C         69.74413        41.36368         0.00075
C         68.49623        42.09575        -0.42872
C         69.71643        44.27796        -0.17907
C         68.49390        43.49174         0.20761
C         69.70659        45.68255        -0.17285
C         68.47886        46.41910        -0.03121
C         69.68714        48.49743        -0.51566
C         68.47109        47.80741        -0.23712
C         69.63861        49.92085        -0.89065
C         68.41644        50.70269        -0.63676
C         69.65801        52.80229        -1.00872
C         68.41604        52.09831        -0.77544
C         69.63043        54.24018        -1.33565
C         68.30785        54.99699        -1.33856
C         69.65545        57.17785        -0.96494
C         68.44113        56.44500        -0.90226
C         69.68726        58.60055        -0.78297
C         68.46424        59.36216        -0.34748
C         69.69221        61.50571        -0.56882
C         68.40781        60.77922        -0.93211
C         69.69841        62.90300        -0.29568
C         68.48105        63.66877        -0.28380
C         69.75957        65.73901         0.15690
C         68.51933        65.04758        -0.06682
C         69.79880        67.16311         0.40358
C         68.60148        67.92408         0.53629
C         69.90977        69.97875         1.02836
C         68.63293        69.28644         0.93875
C         69.98297        71.36734         1.28433
C         71.02020        32.79288         5.26505
C         70.09859        31.83930         4.82428
C         71.08174        34.04091         4.64095
C         70.25062        34.35900         3.55769
C         71.69152        36.34959         2.83927
C         70.28950        35.77950         2.99317
C         71.95796        37.34692         1.98324
C         70.93657        37.91458         1.05289
C         72.08217        40.13360         0.90062
C         70.91334        39.37167         0.77465
C         72.10782        41.47434         0.52434
C         70.94611        42.09599         0.04760
C         72.20688        44.30525        -0.26348
C         70.96257        43.50427        -0.52817
C         72.18089        45.65862        -0.24905
C         70.94698        46.40821        -0.31381
C         72.15877        48.59283        -0.49740
C         70.92992        47.81847        -0.46917
C         72.18289        49.93719        -0.65742
C         70.96670        50.69112        -0.99745
C         72.09823        52.93349        -0.71963
C         70.89891        52.16322        -0.92067
C         72.11285        54.29175        -0.78805
C         70.93723        55.02047        -1.27307
C         72.08237        57.24046        -1.28834
C         70.90395        56.50285        -1.16503
C         72.08325        58.63127        -1.16325
C         70.88966        59.32108        -0.86163
C         72.10504        61.43920        -0.30834
C         70.88870        60.77231        -0.59146
C         72.12969        62.79608        -0.05690
C         70.94063        63.56503        -0.05720
C         72.19745        65.67581         0.35905
C         70.96917        64.99362         0.15660
C         72.23787        67.03987         0.55834
C         71.05548        67.81511         0.59384
C         72.34676        69.93946         0.89664
C         71.11285        69.24626         0.83494
C         72.39358        71.30229         1.14608
C         71.20453        72.02164         1.34367
O         65.08498        62.38469         1.63222
O         63.77681        42.97037        -1.80853
O         49.13210        46.55195        -2.98157
O         70.27515        50.18262        -2.18538
O         60.81758        64.70163         1.94579
O         67.20335        66.83305        -1.18229
O         52.58882        58.03238        -1.44937
O         58.10763        39.55586         0.64581
O         62.77443        65.72136        -1.04172
O         54.28860        41.65860        -2.67342
O         56.54595        42.17542         0.33933
O         42.69290        51.90787         3.32360
O         54.21696        43.93481         0.00591
O         43.45787        47.55907         2.16131
O         68.22808        34.98475        -0.04071
O         70.76368        37.09045        -0.16673
O         66.95754        58.10543        -1.95956
O         70.40546        54.52370        -2.55535
O         64.46410        56.68599         1.55850
O         61.05683        59.88562         2.26340
O         61.36439        47.96769        -2.59564
H         61.26998        48.89797        -2.88919
O         54.64464        61.94186         2.57317
H         55.36676        62.60731         2.71706
O         53.39991        56.22968         1.62944
H         54.21739        55.79680         1.97610
O         68.35468        60.66980        -2.36931
H         67.99117        61.51922        -2.71614
O         64.53480        44.16512         1.58295
H         63.71211        44.64894         1.81186
O         57.06954        61.33239        -0.98549
H         57.22055        60.41111        -1.28703
O         67.14469        63.12894        -2.18540
H         67.14796        64.08914        -2.39338
O         67.17308        45.68772         1.84558
H         66.32306        45.24746         2.09121
O         67.87318        55.08590        -2.72951
H         68.69318        55.17211        -3.27093
O         69.57815        36.63363         3.94494
H         69.98420        36.50039         4.82704
O         57.79229        50.61345        -2.45563
H         57.03524        50.43988        -3.06211
O         49.35366        50.42884         1.45668
H         48.56514        50.41788         2.04020
O         63.38688        50.53669         1.75686
H         64.13558        51.03098         2.15403
O         58.75274        56.79974        -1.85754
H         57.90428        56.46946        -2.25487
O         45.81505        52.21096        -1.38821
H         46.59595        52.05777        -1.96269
O         68.55081        59.52786         1.09592
H         68.69784        58.65048         1.50586
O         68.50943        42.30275        -1.86662
H         68.78080        41.46558        -2.29665
O         49.95819        58.78493        -1.84745
H         50.86344        58.49310        -2.12096
O         59.98291        39.79148        -2.55714
H         60.88789        40.07965        -2.80888
O         70.95978        43.30916        -1.99463
H         70.72258        44.16682        -2.40716
O         58.25664        50.30246         1.16252
H         59.01104        50.61036         1.70909
O         55.07737        53.19225        -2.72228
H         55.19585        52.28313        -3.10137
O         62.85528        63.27850         2.39651
H         62.19223        62.95012         3.03748
O         65.01924        66.76616         2.50180
H         65.06828        67.60343         3.01057
O         57.12798        63.02508         2.25616
H         57.82978        62.48442         2.68044
O         63.02153        63.19157        -1.23813
H         62.78701        64.01078        -1.73867
O         68.59290        43.30211         1.65379
H         68.32966        44.16089         2.06994
O         56.15665        55.77944         1.51922
H         56.41818        56.48379         2.15220
O         55.68204        50.36589         0.58867
H         56.48304        50.40691         1.16565
O         60.43466        37.98645         1.43752
H         59.60144        38.51198         1.44351
O         59.49616        44.40174         1.06320
H         60.23895        44.89064         1.47594
O         56.62650        60.43038         2.54992
H         55.85875        60.65949         3.12958
O         59.55509        54.32751         1.78735
H         58.63732        54.02091         1.95174
O         56.23896        55.71155        -2.16985
H         55.95535        54.96711        -2.75599
O         45.90425        48.43658         2.06305
H         45.17240        48.22693         2.69144
O         44.58667        49.70941        -1.12113
H         44.69777        50.61023        -1.51328
O         58.84447        46.40691        -2.89697
H         58.12141        46.91274        -3.32423
O         55.19456        50.45690        -3.04155
H         54.48374        50.02551        -3.56283
O         58.45805        42.03095        -2.70854
H         58.94193        41.19964        -2.96258
O         56.12900        43.52539        -3.07376
H         56.94174        43.02392        -3.32998
H         37.80524        48.88022         1.35988
H         35.73649        50.09097         1.89697
H         38.00189        53.59719         2.96031
H         35.82902        52.46341         2.69465
H         39.35152        48.05871         0.64464
H         39.71377        54.48723         3.09886
H         41.37017        46.74242         0.33090
H         41.76746        55.70054         2.79547
H         44.99622        44.63954        -0.83364
H         43.10830        45.58587         0.38056
H         45.09232        58.03514         1.24354
H         43.18609        56.74433         2.00317
H         46.50191        43.96377        -2.06742
H         46.58539        59.04226         0.64445
H         48.53214        42.82515        -2.48380
H         48.51163        60.33378         0.00273
H         52.09581        40.43231        -1.32034
H         50.07148        41.79134        -1.49711
H         52.28810        62.24188         1.51689
H         50.17689        61.09494         0.95104
H         53.91112        39.37594        -1.03130
H         53.93800        63.01689        -0.12702
H         55.96205        38.24836        -0.36853
H         55.99372        64.31564        -0.42857
H         59.93726        36.09261        -0.96826
H         57.84128        37.28414        -1.53799
H         59.74498        66.66775        -0.51105
H         57.63506        65.40754        -0.26678
H         61.26837        35.24053         0.43499
H         61.42879        67.90934         0.83756
H         63.37059        33.98317         0.66946
H         63.56728        68.94541         1.31661
H         66.91124        32.22414         2.38087
H         65.08590        33.14508         1.27158
H         67.42094        70.97999         1.58781
H         65.31957        69.74803         1.69580
H         68.51752        31.38732         3.42807
H         69.06417        71.95189         1.42610
H         71.69220        32.56705         6.10428
H         70.04712        30.85560         5.31095
H         71.79942        34.78598         5.01604
H         72.49795        35.96462         3.48299
H         72.98223        37.74933         1.93164
H         73.01004        39.66158         1.25097
H         73.05561        42.02449         0.59108
H         73.17901        43.79243        -0.25843
H         73.13308        46.20205        -0.17599
H         73.10839        48.07875        -0.29755
H         73.13866        50.47016        -0.55797
H         73.01809        52.40838        -0.42764
H         73.01046        54.85079        -0.48879
H         73.02897        56.72230        -1.49612
H         73.02878        59.17466        -1.28898
H         73.04857        60.87780        -0.28024
H         73.09794        63.26965         0.14903
H         73.14463        65.12214         0.36062
H         73.21492        67.51475         0.71477
H         73.29149        69.40403         0.73456
H         73.36185        71.82014         1.18491
H         71.24082        73.10251         1.53726
