         429
 CSIRO Nanostructure Databank - Neutral Graphene Oxide Data Set
C          1.20319         3.49648         0.51373
C          0.00573         4.16557         0.17339
C          1.08928         6.36354         0.62127
C         -0.06361         5.53696         0.11702
C          1.10511         7.79661         0.13746
C         -0.07274         8.55297         0.15688
C          1.11579        10.55155        -0.57701
C         -0.06308         9.91485        -0.15230
C          1.16541        12.06862        -0.70785
C         -0.08360        12.72555        -1.24535
C          1.18114        14.84734        -1.71580
C         -0.07317        14.01688        -1.59961
C          1.35272        15.97328        -0.69139
C          0.10320        16.76400        -0.45534
C          1.40985        18.79496        -0.14544
C          0.17329        18.07690        -0.11531
C          1.41063        20.17299         0.46334
C          0.26984        21.03764        -0.05519
C          1.39973        23.10653         0.68835
C          0.26363        22.37353         0.08813
C          1.50092        24.56609         0.64964
C          0.33911        25.35219         0.38910
C          1.50176        27.39592         1.06828
C          0.33445        26.70371         0.60661
C          1.44155        28.75739         1.38951
C          0.21582        29.49111         1.41429
C          1.39968        31.63056         1.64825
C          0.19079        30.84348         1.63868
C          1.34670        33.06409         1.60370
C          0.13255        33.79474         1.78500
C          1.32003        35.91460         1.58248
C          0.11881        35.16933         1.77554
C          1.31919        37.34966         1.65725
C          3.66822         3.55672         0.76268
C          2.42801         4.21943         0.60637
C          3.61021         6.36060         0.31240
C          2.40263         5.64182         0.45926
C          3.58994         7.74630        -0.05437
C          2.31750         8.43249        -0.22178
C          3.54702        10.34831        -1.24097
C          2.29434         9.79204        -0.62939
C          3.54488        11.83547        -1.43998
C          2.39828        12.60388        -1.42169
C          3.64554        14.72894        -1.85975
C          2.45964        14.03472        -1.66227
C          3.68898        16.19887        -1.66018
C          2.57267        16.81203        -1.06321
C          3.80812        18.94906        -0.70275
C          2.58700        18.19421        -0.64345
C          3.85457        20.32221        -0.24417
C          2.71422        20.91316         0.28109
C          3.97015        23.08435         0.59817
C          2.74495        22.30177         0.72434
C          3.95150        24.45187         0.90830
C          2.72859        25.19959         0.95449
C          3.94473        27.32111         1.37363
C          2.75533        26.64703         1.14609
C          3.96135        28.76260         1.70600
C          2.63853        29.48075         1.96780
C          3.83600        31.68948         1.34972
C          2.64248        30.96301         1.60942
C          3.76616        33.08550         1.15404
C          2.55020        33.78749         1.36222
C          3.75346        35.97090         1.20779
C          2.52775        35.22580         1.35172
C          3.74024        37.40034         1.35217
C          2.48141        38.06319         1.56174
C          6.13128         3.63688         0.97484
C          4.88751         4.27501         0.75801
C          6.07469         6.42761         0.47141
C          4.86002         5.68710         0.49239
C          6.03430         7.81861         0.19870
C          4.81863         8.45449        -0.14701
C          5.98023        10.56498        -0.70742
C          4.81736         9.83483        -0.60356
C          5.98926        11.90511        -1.26426
C          4.80534        12.47696        -1.68235
C          6.12388        14.41115        -2.43673
C          4.76828        13.81058        -2.36443
C          6.09637        16.57136        -2.38259
C          4.89814        17.01483        -1.79118
C          6.21470        19.06996        -1.22422
C          4.97564        18.33716        -1.21422
C          6.27856        20.44116        -0.79945
C          5.09621        21.07788        -0.30719
C          6.39104        23.16143         0.04828
C          5.15547        22.42440         0.12881
C          6.45673        24.50934         0.49073
C          5.25376        25.13020         1.07411
C          6.47278        27.37733         0.95129
C          5.25530        26.63188         1.33693
C          6.42121        28.82340         0.88996
C          5.21856        29.54064         1.39769
C          6.26875        31.71713         0.90119
C          5.12007        31.00814         1.19947
C          6.25943        33.16359         0.76077
C          4.93090        33.84435         0.57178
C          6.18040        36.02169         0.88964
C          4.96254        35.30366         0.94953
C          6.17519        37.44905         1.07439
C          4.94149        38.11443         1.27733
C          8.59627         3.70426         1.13051
C          7.35275         4.35570         0.93766
C          8.56269         6.49370         0.59646
C          7.32790         5.76848         0.69448
C          8.57279         7.90849         0.37369
C          7.26217         8.65721         0.44475
C          8.53783        10.69691        -0.38001
C          7.27582         9.91177        -0.39842
C          8.45392        12.17821        -0.51044
C          7.19365        12.76666        -1.05218
C          8.58945        14.75684        -2.10763
C          7.25051        14.06916        -1.77554
C          8.57416        16.29793        -2.20198
C          7.36892        17.08098        -2.06370
C          8.67548        19.09908        -1.59965
C          7.42183        18.42155        -1.59455
C          8.71874        20.48568        -1.28257
C          7.50807        21.15590        -0.86446
C          8.78631        23.26949        -0.51327
C          7.56136        22.53235        -0.46506
C          8.85357        24.58757        -0.05882
C          7.66790        25.24274         0.43066
C          8.90569        27.44988         0.52335
C          7.64679        26.67366         0.66982
C          8.79504        28.90275         0.23695
C          7.52543        29.56559         0.49543
C          8.64807        31.74771         0.33980
C          7.51074        31.02172         0.59470
C          8.75839        33.18372         0.76542
C          7.42544        33.88804         0.65843
C          8.63743        36.05539         0.66922
C          7.42267        35.33750         0.69267
C          8.62611        37.48583         0.85878
C          7.40221        38.15180         1.05088
C         11.06273         3.75923         1.26418
C          9.82177         4.40167         1.00764
C         11.03772         6.51417         0.39423
C          9.78774         5.80136         0.69921
C         11.04299         7.98961         0.38219
C          9.79021         8.63070         0.34091
C         11.03626        10.90768         0.18466
C          9.74202        10.11461         0.28767
C         11.02638        12.28599        -0.34313
C          9.73222        12.98787        -0.51815
C         11.03732        15.12870        -1.22521
C          9.71593        14.36156        -1.12762
C         11.06568        16.16005        -2.35363
C          9.78640        16.97112        -2.22621
C         11.06755        19.10692        -2.12900
C          9.84653        18.39874        -2.01915
C         11.09932        20.48117        -1.82618
C          9.95078        21.17290        -1.38177
C         11.27600        23.34092        -1.04027
C          9.94107        22.68323        -1.29773
C         11.33956        24.66748        -0.71660
C         10.22749        25.21966         0.16065
C         11.33422        27.51400        -0.34966
C         10.20585        26.74231         0.22648
C         11.23934        28.98086        -0.23166
C          9.91235        29.62673        -0.07832
C         10.99612        31.89376        -0.59209
C          9.73410        31.08648        -0.43308
C         11.04632        33.32136        -0.33501
C          9.92646        33.96258         0.18938
C         11.07682        36.14433         0.42889
C          9.90123        35.38989         0.44440
C         11.08176        37.55201         0.72983
C          9.85773        38.20043         0.91314
C         13.47533         3.85846         1.64469
C         12.31476         4.42408         1.15430
C         13.61219         6.55658         0.52230
C         12.33810         5.76538         0.51392
C         13.54314         8.04073         0.46377
C         12.28771         8.72348         0.36482
C         13.50454        10.83821        -0.04499
C         12.29330        10.13984         0.19148
C         13.48607        12.21778        -0.48183
C         12.24465        12.91403        -0.68516
C         13.48528        14.94032        -1.39398
C         12.28222        14.26725        -1.18662
C         13.50275        16.33893        -1.84328
C         12.33451        16.96433        -2.21470
C         13.58045        19.10955        -2.53568
C         12.27936        18.37701        -2.71034
C         13.50188        20.59726        -2.72346
C         12.41830        21.17441        -1.81405
C         13.75246        23.40057        -1.63417
C         12.50800        22.59828        -1.37523
C         13.66115        24.87861        -1.57840
C         12.53977        25.46105        -1.00202
C         13.64229        27.68156        -1.28073
C         12.47889        26.91117        -0.86222
C         13.54218        29.13809        -1.44289
C         12.32481        29.80560        -0.89208
C         13.87279        32.26445        -1.31484
C         11.97558        31.19217        -1.25191
C         13.69818        33.49397        -0.66511
C         12.36715        34.02696        -0.22682
C         13.59009        36.31723         0.01674
C         12.36896        35.45088         0.28435
C         13.56348        37.58231         0.86363
C         12.33059        38.21068         1.01522
C         15.55986         4.33376         2.87025
C         14.85944         4.45369         1.54098
C         15.94499         6.81363         1.47464
C         14.87974         5.89135         1.02466
C         16.09143         8.07216         0.63402
C         14.74781         8.77447         0.44385
C         16.04617        10.83936        -0.14197
C         14.73476        10.14305         0.12517
C         15.93172        12.33138        -0.24391
C         14.71543        12.93647        -0.62888
C         15.93666        15.04157        -1.09084
C         14.72290        14.30773        -1.05348
C         15.96920        16.40767        -1.56531
C         14.77261        17.04134        -1.92109
C         16.03945        19.13700        -2.39655
C         14.77878        18.44247        -2.29398
C         16.00002        20.55634        -2.60191
C         14.82600        21.28302        -2.59114
C         15.98724        23.58353        -2.98174
C         14.90904        22.74565        -2.30612
C         16.03746        24.98368        -2.32599
C         14.89199        25.61079        -1.82189
C         16.09136        27.82581        -1.52371
C         14.86921        27.04915        -1.55073
C         16.11584        29.20652        -1.40699
C         14.89914        29.99248        -1.55010
C         16.08955        31.94408        -0.42513
C         14.97218        31.41814        -1.13489
C         16.03697        33.29778         0.01269
C         14.87033        34.07434        -0.13272
C         16.10115        36.12847         0.78595
C         14.89525        35.53371         0.13076
C         15.97853        37.43660         1.46962
C         14.74907        38.12176         1.42773
C         17.10283         5.07611         4.61227
C         16.41070         5.28562         3.35377
C         17.69578         7.41591         3.12371
C         16.67718         6.52684         2.61016
C         18.05475         8.62132         2.36829
C         17.16939         9.01116         1.18098
C         17.87058        11.43467         1.60433
C         17.07523        10.41350         0.85978
C         18.15571        12.65808         0.76973
C         17.08141        13.12801        -0.04189
C         18.31814        15.21826        -0.43990
C         17.10647        14.47093        -0.52891
C         18.39597        16.47713        -1.13194
C         17.24299        17.09276        -1.64773
C         18.51360        19.15584        -2.19829
C         17.28732        18.46158        -2.14489
C         18.58306        20.55194        -2.67842
C         17.24763        21.29232        -2.86542
C         18.51366        23.27089        -3.27420
C         17.27808        22.75395        -2.95352
C         18.59527        25.32172        -2.65395
C         17.32651        25.64834        -2.04090
C         18.66437        27.77439        -1.45809
C         17.36871        27.09527        -1.46162
C         18.70177        29.22318        -1.23425
C         17.38224        29.95884        -1.18174
C         18.52679        31.76279         0.08263
C         17.34298        31.22052        -0.41975
C         18.46318        33.00260         0.88436
C         17.14892        33.82539         0.82258
C         18.34592        35.77039         1.78652
C         17.22351        35.24407         1.15731
C         18.29951        37.14115         2.27250
C         17.10498        37.90302         2.16663
C         18.02236         5.96262         5.07657
C         19.36134         8.05794         4.80762
C         18.35033         7.15540         4.32868
C         19.64287         9.24203         4.16993
C         18.92017         9.64578         3.00319
C         20.10646        11.81650         2.66666
C         19.03928        10.90499         2.40096
C         20.23621        13.01306         2.00078
C         19.27255        13.46398         1.02381
C         20.63543        15.46872         0.33850
C         19.41431        14.71058         0.30556
C         20.81163        16.56884        -0.44519
C         19.73160        17.07098        -1.29605
C         20.95579        19.38406        -1.63580
C         19.79322        18.51680        -1.89811
C         20.93598        20.72102        -1.87939
C         19.79561        21.36565        -2.48006
C         20.95311        23.58406        -2.79281
C         19.78477        22.70943        -2.88434
C         20.98696        24.92838        -2.51885
C         19.83315        25.74752        -2.18867
C         21.07557        27.71537        -1.13484
C         19.86321        27.05129        -1.53384
C         21.07361        29.00086        -0.62956
C         19.89934        29.80954        -0.61278
C         20.97187        31.81924         0.39990
C         19.81439        31.11649        -0.06568
C         20.91406        33.07186         0.98326
C         19.68322        33.72237         1.25777
C         20.70044        35.63665         2.47781
C         19.58346        35.01174         1.87070
C         20.62058        36.92920         2.99297
C         19.44515        37.67927         2.89227
O         17.97112        20.69074        -4.00529
O         12.28515        29.63313         0.57816
O         20.10898        17.32327        -2.68695
O          9.88915        27.19063         1.59934
O         11.69527         5.85246        -0.78928
O         18.54940        24.56520        -3.82903
O         10.23354        10.79421         1.45730
O          1.94308        22.55647         1.92804
O         15.93079        36.19199        -0.69858
O          7.47334        12.77432         0.39830
O         14.59894         5.97149        -0.40233
O          5.46749        25.67330         2.42352
O          9.43021        14.20834         0.28176
O         17.46733        32.94938         1.95557
O          8.17219         9.91603        -1.56635
O         14.06216        29.65120        -2.68702
O         12.57037        34.37855         1.23040
O          4.91627        29.09108         2.78081
O          6.11472        15.51326        -3.30998
O         12.80012        21.47816        -0.44557
O         12.82567        31.84479        -2.13839
O         18.50620         8.37744         0.97125
O         18.20931        30.02184        -2.40188
O         14.91445        22.93191        -0.84625
O         17.41788        25.92149        -0.59961
O          1.66463        15.31988         0.58651
H          1.70834        16.01467         1.27797
O         11.13407        15.96488        -0.03653
H         10.73558        15.44815         0.70480
O         16.93682        11.94474         2.66789
H         17.40388        12.67834         3.12432
O          1.12458        15.49340        -3.01414
H          1.15185        14.79347        -3.69914
O          7.12945         9.14995         1.82299
H          7.07754         8.37361         2.41928
O         10.61370        24.74454         1.48243
H         10.32510        25.43145         2.12989
O          2.42822        29.43693         3.41307
H          3.32171        29.49945         3.82417
O          4.68856        33.82494        -0.89261
H          5.37313        34.39458        -1.30463
O          9.21793        31.04549        -1.83688
H          8.28159        30.75206        -1.79996
O         13.00723        20.87717        -4.09645
H         13.78415        20.87241        -4.69702
O         16.55505         7.69924        -0.69538
H         17.49103         7.41339        -0.58882
O         11.14021        15.54358        -3.65489
H         11.38819        16.25506        -4.28780
O          8.98811        14.18384        -3.37314
H          8.42853        14.57517        -4.07581
O          9.65871        23.10389        -2.69818
H          8.85746        22.61911        -2.99240
O          1.18210        19.97278         1.89449
H          1.31512        20.85589         2.32144
O         13.46671        36.73604        -1.36648
H         14.36600        37.01796        -1.65288
O          1.30784        12.51502         0.67709
H          1.41117        13.50042         0.67959
O          9.06703        33.14367         2.20793
H          8.36185        32.62398         2.64942
O         12.01765        18.29854        -4.16582
H         12.14507        19.22090        -4.50458
O         15.59689         3.64277         0.57927
H         15.32844         3.96537        -0.31074
O          0.88953         6.45688         2.09024
H          0.84817         5.53708         2.43025
O          4.39921        13.53267        -3.76168
H          4.61790        14.34719        -4.26753
O          3.57423         9.78111        -2.60702
H          4.32233        10.20101        -3.08395
O         15.60407        23.76414        -4.36764
H         16.37002        24.15827        -4.83858
O         16.52005        10.38909        -1.46109
H         16.52726         9.39529        -1.44635
H          1.21882         2.40019         0.58398
H         -0.88390         3.56571        -0.06980
H         -1.01029         6.03151        -0.14238
H         -1.01402         8.08508         0.47794
H         -0.99499        10.48874        -0.05289
H         -1.03371        12.16959        -1.24696
H         -1.00253        14.49560        -1.94754
H         -0.85084        16.22091        -0.39680
H         -0.73709        18.60619         0.20074
H         -0.59286        20.54829        -0.53148
H         -0.58112        22.95359        -0.31150
H         -0.59167        24.85930         0.07890
H         -0.59995        27.25696         0.44959
H         -0.73952        28.97048         1.26238
H         -0.78243        31.35029         1.67870
H         -0.80792        33.25715         1.96538
H         -0.82301        35.71188         1.94277
H          0.36234        37.86641         1.82206
H          3.68340         2.46529         0.89900
H          2.47065        39.15967         1.64608
H          6.15335         2.55294         1.16208
H          4.93251        39.20896         1.38875
H          8.61050         2.62716         1.35148
H          7.39959        39.24171         1.20151
H         11.05151         2.72147         1.62865
H          9.83845        39.27474         1.14962
H         13.41688         2.85371         2.09164
H         12.28919        39.20514         1.48726
H         15.41569         3.40068         3.43609
H         14.67236        39.08181         1.96279
H         16.87845         4.15893         5.17613
H         17.06697        38.89283         2.64654
H         18.54861         5.77719         6.02410
H         19.89238         7.79862         5.73483
H         20.38317         9.92716         4.60688
H         20.90352        11.51186         3.36073
H         21.10951        13.64202         2.22035
H         21.47830        15.10735         0.94345
H         21.79502        17.05642        -0.48778
H         21.88320        18.91632        -1.27787
H         21.83605        21.31965        -1.67982
H         21.92996        23.08297        -2.88494
H         21.98165        25.38857        -2.41058
H         22.02136        27.15666        -1.16718
H         22.01773        29.41542        -0.24817
H         21.95960        31.36163         0.25150
H         21.85762        33.56332         1.25944
H         21.64723        35.08701         2.57020
H         21.50289        37.37055         3.47739
H         19.41282        38.70488         3.28701
