         317
 CSIRO Nanostructure Databank - Neutral Graphene Oxide Data Set
C         30.24636        31.82158        -0.73868
C         30.30194        33.05769        -0.73149
C         30.24588        35.97536         0.34970
C         30.29294        37.18532         0.67052
C         30.26450        40.24488         1.45817
C         30.23413        41.50621         1.27817
C         32.63124        28.97730        -0.46278
C         31.54027        29.54468        -0.56475
C         32.66039        31.71896        -0.41945
C         31.30050        30.95360        -0.11330
C         32.66345        33.08649        -0.46548
C         31.46415        33.98722        -0.86557
C         32.60593        35.91224         0.26875
C         31.44043        35.25725        -0.05175
C         32.67234        37.23033         1.05092
C         31.35832        38.03791         1.03215
C         32.64083        40.05505         1.91339
C         31.36247        39.36657         1.37653
C         32.61137        41.62490         1.84329
C         31.35100        42.32920         1.28380
C         32.77177        44.17373         0.52932
C         31.67765        43.57697         0.74582
C         35.41247        27.49006         0.37837
C         35.09350        28.94735         0.31535
C         34.03055        29.43892        -0.65306
C         35.14991        31.66277        -0.51839
C         33.94187        30.99750        -0.45369
C         35.12622        33.14669        -0.89682
C         33.95976        33.80264        -0.13128
C         35.13024        36.09931        -0.26364
C         33.86721        35.31052        -0.25883
C         35.18118        37.34748         0.61358
C         33.83937        38.13617         0.56006
C         35.07353        40.19917         1.29522
C         33.91413        39.49362         1.27589
C         35.23710        41.65494         1.77682
C         33.89247        42.42115         1.87654
C         35.16537        44.62698         1.38061
C         33.82053        43.99959         1.63484
C         35.35871        45.99454         0.87331
C         37.89515        27.39417         0.32850
C         36.49057        26.91629         0.48249
C         37.69642        28.79403        -0.34652
C         36.44542        29.59756        -0.13018
C         37.70661        31.66705        -0.52157
C         36.40986        30.92199        -0.48415
C         37.71968        33.15548        -0.45873
C         36.45379        33.91881        -0.72541
C         37.71270        36.12937        -0.10757
C         36.45527        35.40642        -0.47604
C         37.70259        37.46521         0.19529
C         36.39566        38.19403         0.28949
C         37.62084        40.31239         1.03584
C         36.34157        39.60423         0.75865
C         37.62081        41.65903         0.93599
C         36.26402        42.33525         0.77758
C         37.61973        44.55202         0.52382
C         36.38701        43.82007         1.03611
C         37.44076        45.77996        -0.40621
C         36.33335        46.51994         0.32641
C         40.17616        24.68709         0.69483
C         39.18020        25.24475         0.25409
C         40.28612        27.20063        -0.56452
C         38.83946        26.47812        -0.47892
C         40.26416        28.71849        -0.81094
C         38.93706        29.45758        -0.87415
C         40.21954        31.56605        -0.38824
C         38.96687        30.98507        -1.07287
C         40.24222        33.09464        -0.30917
C         39.01468        33.89364        -0.78605
C         40.21647        35.98826         0.27897
C         38.99182        35.37376        -0.31624
C         40.11969        37.33904         1.00168
C         38.96025        38.24282         0.50871
C         40.04694        40.07945         0.47835
C         38.88459        39.52914         1.36203
C         39.97473        41.59121         0.11600
C         38.96959        42.37490         1.03116
C         40.22128        44.57161         0.08492
C         38.94586        43.86539         0.61375
C         39.94742        45.86790        -0.66580
C         38.73163        46.50018        -0.67526
C         39.78582        48.48464        -1.59028
C         38.77353        47.83209        -1.26304
C         42.77517        24.60328         0.58025
C         41.50410        25.31721         0.94419
C         42.71697        27.32052        -0.08110
C         41.53373        26.65679         0.07641
C         42.76484        28.69311        -0.68143
C         41.51678        29.45234        -0.72137
C         42.76123        31.56900        -0.34704
C         41.51809        30.94634        -0.97888
C         42.68797        32.96054         0.16087
C         41.38808        33.70539         0.08712
C         42.68076        35.86904         0.37656
C         41.39849        35.11012         0.67662
C         42.66673        37.34802         0.53353
C         41.42690        38.10591         0.80903
C         42.72573        40.24642         0.52625
C         41.41755        39.45890         0.68824
C         42.48479        41.42688        -0.45817
C         41.37299        42.33984         0.10841
C         42.57600        44.41956        -0.73662
C         41.24447        43.68245        -0.66645
C         42.49861        45.83112        -1.29179
C         41.22133        46.64704        -0.93113
C         42.41768        48.50500        -1.93960
C         41.04652        47.96703        -2.16070
C         43.81725        25.23322         0.38966
C         45.27260        27.26410        -0.21967
C         44.05505        26.71322         0.50162
C         45.30477        28.87914        -0.05042
C         44.10143        29.48148        -0.78757
C         45.31346        31.68528        -0.28714
C         44.08633        31.03349        -0.92467
C         45.25088        32.97584         0.12138
C         43.96542        33.75691        -0.11405
C         45.22924        35.91766         0.22902
C         43.97730        35.10836         0.61422
C         45.20111        37.34588         0.89352
C         43.94426        38.08261         0.49771
C         45.18215        40.05617        -0.33444
C         43.91975        39.38035         0.13052
C         45.07923        41.57220        -0.25484
C         43.82521        42.20889        -0.86540
C         45.03001        44.42683        -0.94065
C         43.80776        43.74138        -0.74431
C         45.03713        45.89652        -1.40680
C         43.80112        46.66673        -0.95424
C         43.49536        47.95843        -1.67983
C         47.67343        27.48012        -0.05638
C         46.64019        26.87924         0.28712
C         47.82985        28.87822        -0.40167
C         46.62588        29.52409        -0.45722
C         47.82588        31.61083         0.14506
C         46.63572        31.02515        -0.66325
C         47.78119        33.16078         0.09616
C         46.46710        33.63257         0.78126
C         47.69607        35.94722         0.96386
C         46.42857        35.18050         0.81756
C         47.70662        37.42891         0.73019
C         46.47824        38.10713         0.60095
C         47.67226        40.17371         0.10376
C         46.45933        39.46811         0.24191
C         47.66918        41.52906        -0.57613
C         46.36173        42.30456        -0.41158
C         47.52247        44.45484        -0.21878
C         46.37742        43.72032        -0.95650
C         47.25064        45.83639        -0.29430
C         46.32045        46.47483        -0.82834
C         50.37772        28.93922        -0.33785
C         49.10655        29.56337        -0.82226
C         50.31166        31.61176         0.20602
C         49.17948        31.01548        -0.23021
C         50.23677        32.94241         0.96832
C         49.02480        33.83197         0.68325
C         50.09286        36.07393         1.35057
C         48.96962        35.15843         0.98467
C         50.16470        37.32047         0.42171
C         48.91237        38.14622         0.60487
C         50.19604        40.15087        -0.21687
C         48.90924        39.52951         0.32151
C         50.22091        41.72988        -0.26596
C         48.85986        42.36933        -0.17487
C         49.96169        44.33075         0.50985
C         48.71998        43.76311         0.02480
C         51.39835        29.44361         0.12595
C         52.56284        31.43943         1.35731
C         51.74662        30.90094         0.16619
C         52.55025        32.70604         1.36214
C         51.61129        33.65434         0.91127
C         52.59167        35.84495         0.09724
C         51.85729        34.61694        -0.07550
C         52.54846        37.04010         0.40597
C         51.49444        38.04827         0.63298
C         52.58691        40.47026         0.21592
C         51.49324        39.51373         0.39155
C         52.60806        41.70196         0.34491
C         51.32216        42.39177         0.75759
C         51.11731        43.88067         0.59293
O         50.73761        41.97953        -1.64932
O         45.70726        42.20276         0.88886
O         37.81427        32.39015         0.77006
O         45.08606        37.17473         2.27694
O         40.46623        27.69772        -1.89135
O         42.59611        36.64941        -0.82959
O         39.97176        36.11682        -1.13725
O         36.10323        44.23791         2.40964
O         46.82025        35.63883         2.12700
O         51.44126        38.97047         1.73608
O         43.60495        28.80595        -1.92285
O         34.30865        36.01191        -1.46302
O         42.75082        31.81547         1.08857
O         38.47285        44.74946         1.69255
O         50.75902        35.98831         2.36034
O         33.14894        42.14388         3.10398
O         36.19983        39.25698        -0.70105
O         44.15686        31.41968        -2.28468
O         38.01753        28.80208        -1.79489
O         36.61117        34.85505        -1.82880
O         52.36865        31.25790        -1.04323
H         53.27716        30.89332        -1.05082
O         38.51598        27.58862         1.59379
H         37.87696        27.98132         2.22274
O         45.12879        45.88967        -2.83222
H         45.77298        45.18807        -3.08984
O         51.05879        34.56648        -1.15315
H         50.92837        35.46136        -1.55444
O         33.53793        38.45226        -0.80609
H         34.35329        38.82169        -1.22233
O         47.79204        41.19069        -2.00779
H         47.62398        42.02732        -2.51443
O         50.00877        32.54416         2.34901
H         50.23011        33.30250         2.93204
O         31.15305        30.97687         1.28370
H         30.33850        30.49237         1.52870
O         32.68444        39.68040         3.29970
H         32.96756        40.47316         3.81591
O         47.62576        31.13860         1.49004
H         48.32153        31.54291         2.06492
O         42.47179        45.62397        -2.73137
H         43.40327        45.49548        -3.04718
O         46.79170        31.31213        -2.07224
H         45.86601        31.28815        -2.47124
O         50.51247        43.34605        -2.04638
H         51.35198        43.80006        -1.78229
O         32.90079        36.89811         2.44073
H         32.15182        36.35243         2.76147
O         41.93754        40.84403        -1.65522
H         42.45983        40.04729        -1.89267
O         40.15808        31.04912         0.96238
H         40.94368        31.39702         1.45538
O         34.80391        33.14784        -2.29724
H         35.18869        33.97437        -2.68077
O         34.18486        33.61631         1.29133
H         34.15287        32.65527         1.49242
O         35.47306        36.88075         1.94596
H         34.63213        36.63237         2.40461
O         36.93136        45.30194        -1.63898
H         36.98742        46.01797        -2.30617
O         44.10772        27.01838         1.87426
H         43.32347        26.60831         2.31324
O         39.47775        39.14010        -0.59530
O         39.37778        42.31259         2.42189
H         38.84748        42.99591         2.89626
O         41.44092        47.40938         0.26311
H         41.25019        46.80353         1.02129
O         31.67049        34.35753        -2.22226
H         31.71234        33.54875        -2.77315
O         39.87391        37.09158         2.39091
H         40.46199        36.35520         2.68869
O         41.78380        42.71421         1.43129
H         41.01240        42.72865         2.05091
O         50.99943        42.01102         2.05073
H         51.69481        42.29488         2.67793
O         50.11520        36.94208        -0.98223
H         50.08137        37.79323        -1.49600
O         35.76987        42.18628        -0.56198
H         36.11112        41.35162        -0.95318
O         41.60275        25.71911         2.29863
H         41.46953        24.93597         2.87259
O         40.80746        43.51389        -2.01467
H         41.40523        42.86836        -2.45275
O         40.91439        45.02444         1.28613
H         40.21455        45.27123         1.93754
O         39.36530        41.68085        -1.17091
H         39.79790        41.01954        -1.75646
O         41.34832        34.89604         2.11414
H         42.26783        34.64772         2.40295
O         43.97751        42.04408        -2.29695
H         44.31538        41.12389        -2.45743
O         49.10411        29.64008        -2.23948
H         49.93357        30.07472        -2.52737
O         47.75617        33.62726        -1.26490
H         47.42797        32.89495        -1.85374
O         43.89124        34.00803        -1.54300
H         44.01184        33.12022        -2.01672
O         35.84895        41.64593         3.07250
H         35.14000        41.74304         3.74539
O         39.12241        33.91408        -2.21555
H         39.73620        34.64480        -2.45672
O         38.35857        26.18407        -1.75738
H         38.30691        27.01577        -2.28374
O         45.17375        26.88958        -1.56635
H         45.96484        27.19434        -2.05646
O         46.83809        43.69360        -2.36255
H         47.64705        44.24713        -2.43754
O         45.27612        39.76597        -1.78353
H         46.19671        39.99080        -2.07078
O         46.46583        33.20176         2.14594
H         45.65263        33.56549         2.56483
O         39.07373        39.45837         2.75520
H         39.10203        40.37667         3.10484
O         40.83736        47.54052        -3.44767
H         41.57639        46.93984        -3.70515
O         44.05388        34.81348         2.03113
H         44.43431        35.64906         2.46318
O         45.39919        36.09478        -1.16071
H         44.76621        35.50773        -1.65237
O         50.21795        39.66300        -1.58990
H         49.50942        40.15117        -2.08063
O         41.58299        31.13497        -2.38997
H         42.55034        31.13487        -2.66897
O         34.75302        29.43100         1.60850
H         35.32404        29.00355         2.27844
O         43.96307        46.87286         0.42670
H         43.22575        47.45520         0.72846
O         43.17433        40.65798         1.83363
H         42.96727        41.61214         1.98186
O         34.47151        29.18517        -1.97334
H         33.77310        29.45278        -2.60494
O         45.09659        29.24488         1.31749
H         45.94300        29.15905         1.80624
O         33.31329        44.57630         2.81723
H         33.52891        45.53172         2.82576
O         39.00866        31.23450        -2.47408
H         38.46660        30.55493        -2.92914
