         430
 CSIRO Nanostructure Databank - Neutral Graphene Oxide Data Set
C         28.28454        27.87648         2.64882
C         28.20007        29.20058         2.14179
C         27.00104        29.95457         2.25301
C         28.10666        31.91210         1.31299
C         26.97335        31.28373         1.86472
C         28.05730        33.40326         1.07960
C         26.79311        33.89304         0.42021
C         27.93918        35.95257        -0.21561
C         26.75014        35.15557        -0.08715
C         27.90594        37.37307        -0.43189
C         26.70453        38.10575        -0.23905
C         27.89364        40.21359        -0.51469
C         26.70644        39.48726        -0.28451
C         27.90774        41.66497        -0.42872
C         26.77200        42.38900         0.01302
C         27.92929        44.49619        -0.30329
C         26.77689        43.77222         0.06592
C         27.95486        45.94227        -0.21557
C         30.63948        27.75610         2.04955
C         29.47998        27.18330         2.62220
C         30.56549        29.05530         1.52758
C         29.35599        29.80233         1.56222
C         30.46766        31.82807         0.59554
C         29.30639        31.17967         1.12504
C         30.46220        33.21833         0.27480
C         29.26752        33.96355         0.37779
C         30.39074        35.92635        -0.59439
C         29.20754        35.28588        -0.12675
C         30.30013        37.30033        -1.21319
C         29.09752        38.07783        -0.73788
C         30.32053        40.19759        -1.08187
C         29.10540        39.49580        -0.79300
C         30.26113        41.66902        -1.40549
C         29.07956        42.37863        -0.77260
C         30.30062        44.52263        -1.09829
C         29.08107        43.78159        -0.71146
C         30.29083        46.02359        -1.01673
C         29.05597        46.66744        -0.52166
C         32.98880        24.82092         1.54300
C         31.86275        25.52624         1.81962
C         33.11429        27.61951         1.39874
C         31.95314        26.99535         2.13700
C         33.08033        29.06157         1.14232
C         31.73826        29.64125         0.84440
C         32.93345        31.75723        -0.05566
C         31.68650        31.05718         0.33337
C         32.84979        33.10507        -0.41926
C         31.64575        33.85207        -0.24268
C         32.83216        35.91325        -1.01679
C         31.60562        35.23067        -0.61375
C         32.81290        37.37119        -1.16964
C         31.59623        38.06956        -1.13238
C         32.78000        40.23715        -1.29733
C         31.56035        39.51114        -1.18811
C         32.79917        41.66212        -1.21491
C         31.57455        42.38674        -1.16974
C         32.80760        44.48580        -0.91948
C         31.58912        43.78148        -1.04607
C         32.79592        45.92325        -0.44313
C         31.58697        46.72691        -0.85755
C         32.86440        48.79126        -0.59744
C         31.65772        48.10482        -0.84173
C         35.52400        23.33080         1.56329
C         35.47247        24.72144         1.17485
C         34.26543        25.46126         1.32187
C         35.47506        27.53649         0.64040
C         34.27461        26.88918         1.13899
C         35.48583        28.91368         0.33729
C         34.29216        29.74233         0.58148
C         35.33832        31.62410        -0.63768
C         34.17693        31.04630        -0.11915
C         35.26720        32.94312        -1.29818
C         33.98238        33.73906        -1.11797
C         35.26761        35.89809        -1.66435
C         33.99031        35.21086        -1.22571
C         35.28504        37.36881        -1.31084
C         34.05225        38.05739        -1.30375
C         35.30846        40.23096        -1.25379
C         34.04640        39.51585        -1.65621
C         35.30290        41.64252        -1.19007
C         34.03994        42.37846        -1.19619
C         35.28695        44.55045        -1.11988
C         34.02180        43.78526        -1.05003
C         35.30104        45.98035        -0.73385
C         34.09810        46.66949        -0.62098
C         35.34085        48.78767        -0.34612
C         34.09564        48.09921        -0.48674
C         35.37209        50.20635        -0.06891
C         37.95100        23.24348         1.28699
C         36.71162        22.65707         1.68457
C         37.83705        24.45015         0.37775
C         36.66146        25.35392         0.73757
C         37.84147        27.41071        -0.00559
C         36.66515        26.75145         0.43255
C         37.85585        28.80425        -0.28483
C         36.64022        29.55661        -0.17160
C         37.81454        31.59995        -0.89561
C         36.60882        30.93753        -0.56452
C         37.82634        33.00830        -1.20106
C         36.55499        33.69375        -1.65740
C         37.78710        35.90062        -1.31966
C         36.48976        35.14649        -1.11735
C         37.77400        37.31660        -1.22696
C         36.51346        38.04976        -1.21173
C         37.73898        40.20197        -0.95218
C         36.51683        39.50151        -1.11322
C         37.75199        41.60508        -0.99330
C         36.54378        42.32188        -1.09467
C         37.82264        44.50867        -0.76189
C         36.58590        43.79964        -1.16754
C         37.78701        45.91661        -0.53755
C         36.55481        46.65341        -0.57961
C         37.81646        48.75413        -0.18643
C         36.56932        48.06767        -0.38163
C         37.86219        50.26892        -0.23927
C         36.52703        50.89643         0.04808
C         40.48090        20.75424         2.43758
C         39.28095        21.36170         2.19523
C         40.43679        23.32901         1.23203
C         39.19317        22.64675         1.55345
C         40.43156        24.62077         0.68287
C         39.15396        25.20583         0.20437
C         40.37153        27.50822         0.13412
C         39.12387        26.66858        -0.07941
C         40.31167        28.68364        -0.86667
C         39.05894        29.48107        -0.62098
C         40.29698        31.56364        -0.99425
C         39.06591        30.87902        -0.82676
C         40.29946        32.97269        -1.51773
C         39.00279        33.72246        -1.32724
C         40.23570        35.90384        -1.40015
C         39.00834        35.18545        -1.39563
C         40.23510        37.30543        -1.19907
C         39.00688        38.00763        -1.10758
C         40.27740        40.18773        -0.85247
C         38.99230        39.43495        -0.61431
C         40.28293        41.59252        -0.82532
C         39.04424        42.36747        -1.19894
C         40.22776        44.46896        -0.36259
C         39.01728        43.78973        -0.67105
C         40.21512        45.86871        -0.19005
C         39.00919        46.60065        -0.26272
C         40.23017        48.71126         0.33783
C         39.00760        48.03772        -0.07886
C         40.17488        50.09041         0.75633
C         39.00271        50.85988         0.56569
C         40.07769        52.77664         1.61792
C         38.97649        52.19563         0.99743
C         42.95511        20.74419         2.29559
C         41.71623        21.38901         2.08522
C         42.91597        23.33880         1.17819
C         41.69122        22.69054         1.51226
C         42.89802        24.67921         0.67508
C         41.64967        25.34355         0.48187
C         42.84639        27.36084        -0.25869
C         41.65342        26.71206         0.04838
C         42.84763        28.69922        -0.97324
C         41.57885        29.48938        -0.80989
C         42.80954        31.62697        -1.01386
C         41.55323        30.87057        -0.92630
C         42.80462        33.01800        -1.11737
C         41.49746        33.77700        -1.00317
C         42.78336        35.91538        -1.22542
C         41.54134        35.17119        -1.65370
C         42.75135        37.32146        -1.10187
C         41.49998        38.02498        -1.06051
C         42.74845        40.12391        -0.76676
C         41.49708        39.42770        -0.86962
C         42.69811        41.54302        -0.34422
C         41.46714        42.31409        -0.54648
C         42.67108        44.38955         0.06988
C         41.48118        43.71742        -0.28891
C         42.57748        45.78827         0.61472
C         41.53285        46.61188        -0.12785
C         42.59919        48.60983         0.99396
C         41.42956        48.00270         0.45601
C         42.55517        49.96325         1.44428
C         41.33061        50.69259         1.33880
C         42.43954        52.64047         2.35470
C         41.27389        52.04708         1.78054
C         44.14169        21.35795         1.93327
C         45.38629        23.31467         0.99864
C         44.15460        22.65745         1.36966
C         45.36660        24.66480         0.54260
C         44.11997        25.35640         0.39070
C         45.33302        27.40496        -0.29856
C         44.10213        26.70162        -0.08151
C         45.32373        28.82573        -0.57601
C         44.09687        29.50963        -0.75571
C         45.28779        31.64746        -0.98362
C         44.06058        30.91273        -0.92877
C         45.26497        33.06876        -1.14224
C         44.02535        33.76087        -1.17603
C         45.25059        35.92761        -1.22522
C         44.00441        35.20570        -1.19761
C         45.22588        37.34949        -1.18112
C         44.00037        38.04201        -1.05377
C         45.23138        40.27839        -1.08617
C         43.96413        39.46851        -0.89196
C         45.23988        41.63404        -0.45824
C         43.98017        42.30527        -0.16547
C         45.14948        44.46482         0.16712
C         43.94718        43.77011        -0.00674
C         45.13408        45.85557         0.55519
C         43.89483        46.52210         0.70031
C         45.03775        48.55012         1.48590
C         43.84712        47.88818         1.05208
C         44.97869        49.89003         1.97173
C         43.72425        50.59851         1.96432
C         43.61965        51.94144         2.43470
C         47.80852        23.28051         0.74573
C         46.63103        22.64359         1.07650
C         47.82404        24.63824         0.33718
C         46.58743        25.33586         0.23088
C         47.80569        27.41775        -0.33744
C         46.56914        26.72249        -0.14648
C         47.80703        28.83040        -0.55174
C         46.55219        29.55000        -0.63435
C         47.75706        31.69838        -0.98922
C         46.52870        30.95788        -0.85623
C         47.74641        33.05304        -1.27031
C         46.50226        33.79462        -1.28165
C         47.75490        35.95880        -1.61003
C         46.47815        35.20054        -1.34259
C         47.74764        37.36667        -1.11275
C         46.50562        38.13547        -1.43591
C         47.63420        40.12250        -0.32287
C         46.49408        39.51084        -0.83885
C         47.61558        41.54428        -0.06143
C         46.43305        42.30196        -0.24938
C         47.71609        44.46957         0.19844
C         46.43574        43.81490        -0.32275
C         47.64856        45.89638         0.73157
C         46.33611        46.54734         0.88354
C         47.47493        48.46408         1.96993
C         46.28515        47.84486         1.45324
C         47.37790        49.79154         2.44583
C         46.18013        50.48504         2.43781
C         50.30799        24.64738         0.12285
C         49.06244        25.32150         0.06005
C         50.28407        27.40828        -0.44283
C         49.04949        26.71494        -0.24476
C         50.27118        28.82336        -0.66719
C         49.03381        29.51768        -0.67649
C         50.29907        31.67647        -1.00519
C         49.03178        31.01489        -0.54790
C         50.29538        33.06512        -1.20678
C         49.03265        33.76157        -1.65033
C         50.17778        35.91231        -1.03285
C         49.00597        35.21776        -1.28838
C         50.14342        37.27085        -0.63193
C         48.90673        37.98831        -0.64435
C         50.07540        40.00759         0.19712
C         48.88593        39.38041        -0.20557
C         50.05031        41.36981         0.76540
C         48.73731        42.19212         0.61062
C         50.00332        44.25685         1.16308
C         48.84456        43.65149         0.65486
C         49.99291        45.65763         1.54419
C         48.79453        46.41331         1.49473
C         49.89463        48.27121         2.61072
C         48.71684        47.72211         2.03511
C         51.49771        25.31543        -0.07111
C         52.76364        27.41116        -0.54155
C         51.52446        26.70820        -0.34341
C         52.72258        28.78991        -0.88215
C         51.51220        29.51427        -0.88213
C         52.72728        31.68327        -1.20394
C         51.51572        30.96014        -1.04630
C         52.73757        33.09351        -1.15962
C         51.50170        33.77754        -1.19589
C         52.72086        35.95594        -0.90521
C         51.48661        35.26198        -1.41821
C         52.67188        37.26975        -0.46723
C         51.36507        37.85811         0.01299
C         52.54751        40.05167         0.34204
C         51.34745        39.36016         0.10723
C         52.53479        41.43794         0.75805
C         51.28234        42.11930         0.95052
C         52.42039        44.17104         1.69675
C         51.22526        43.49398         1.31648
C         52.41684        45.53112         2.05210
C         51.17548        46.26182         2.06673
C         51.08558        47.57661         2.59543
C         55.22827        27.43441        -0.56246
C         54.03543        26.76434        -0.40497
C         55.26135        28.79993        -0.96991
C         53.98197        29.44582        -1.27429
C         55.26603        31.69066        -1.28594
C         53.99189        30.98011        -1.44457
C         55.23115        33.13713        -1.16193
C         53.99458        33.82941        -1.14548
C         55.18214        35.96731        -0.77641
C         53.97068        35.25140        -0.97841
C         55.13432        37.37501        -0.46069
C         53.88011        38.00849        -0.23464
C         55.03162        40.10386         0.36358
C         53.82535        39.38388         0.17446
C         55.00000        41.47121         0.85175
C         53.73507        42.09396         1.07531
C         54.94049        44.19202         1.78353
C         53.68273        43.37017         1.87701
C         54.87523        45.56839         2.14862
C         53.66842        46.19545         2.33438
C         56.44123        29.53651        -1.08831
C         56.44050        30.93930        -1.23936
C         56.43200        33.89110        -1.04734
C         56.40920        35.25471        -0.85365
C         56.31999        38.14025        -0.30305
C         56.26818        39.45587         0.09774
C         56.17899        42.20745         1.09038
C         56.14207        43.55452         1.49524
O         43.28929        41.67902         1.01406
O         53.93530        30.07559        -2.59468
O         48.07529        45.60165        -0.66524
O         31.47964        29.87045        -0.57237
O         39.26949        25.72183        -1.18514
O         49.09757        41.52177         1.86696
O         30.14066        45.32928        -2.32663
O         33.93189        29.87837         2.02694
O         35.99244        44.33211        -2.41023
O         34.29566        33.02305        -2.38516
O         49.11378        33.70164        -3.12739
H         48.41052        34.31210        -3.46668
O         34.07453        39.51665        -3.15470
H         34.03514        40.45575        -3.43968
O         32.31158        27.08080         3.56938
H         33.20244        26.68212         3.66889
O         51.51936        35.42220        -2.88555
H         50.84697        34.79205        -3.24644
O         36.28106        35.05688         0.31894
H         37.13354        34.81803         0.74024
O         32.65014        45.78748         1.03477
H         32.71285        46.69182         1.41164
O         40.18712        28.13525        -2.20649
H         41.09114        27.85966        -2.50030
O         30.07312        37.06554        -2.65586
H         30.00847        37.94582        -3.08521
O         47.79479        36.05391        -3.15862
H         48.63724        36.51806        -3.36954
O         45.20565        40.60949        -2.53374
H         45.61258        39.84201        -3.01324
O         41.27607        34.01350         0.41310
H         41.30770        33.14828         0.87351
O         40.43666        32.79840        -2.97872
H         39.57504        32.46513        -3.31216
O         38.17426        50.60493        -1.64361
H         37.44511        50.24778        -2.19409
O         49.04170        31.23811         0.92338
H         48.25691        30.77731         1.29101
O         42.08740        45.66233         1.98696
H         42.65867        45.01739         2.45463
O         51.28305        37.41491         1.43056
H         51.98561        37.88923         1.92507
O         39.15030        42.52178        -2.65906
H         38.37959        43.05111        -2.95946
O         28.05785        33.99288         2.44097
H         28.02534        34.96716         2.32836
O         36.69743        33.68964        -3.08985
H         35.79606        33.82311        -3.46842
O         40.32159        28.09266         1.46217
H         40.55184        27.40048         2.11632
O         46.40078        44.05440        -1.76379
H         46.86104        44.91493        -1.91490
O         30.02349        41.74294        -2.86286
H         29.97259        42.69522        -3.09910
O         37.49252        23.88515        -0.92621
H         37.87188        24.50239        -1.59719
O         42.00237        46.75642        -1.49682
H         41.34390        47.28836        -1.99070
O         42.89770        28.31447        -2.41675
H         43.01353        29.14230        -2.93219
O         53.64484        42.90853         3.29569
H         54.48184        42.42155         3.45568
O         41.70420        35.07545        -3.09126
H         41.11415        34.35169        -3.41973
O         46.51831        38.34441        -2.91234
H         46.71050        37.45526        -3.31409
O         38.94196        39.30713         0.86488
H         39.74012        38.80776         1.14230
O         35.31473        35.87034        -3.11697
H         34.64443        36.50464        -3.45030
H         27.39061        27.41916         3.09694
H         26.11139        29.48802         2.69973
H         26.05692        31.86963         2.02106
H         25.87856        33.28471         0.46556
H         25.79540        35.56034        -0.45446
H         25.76799        37.57436        -0.02301
H         25.75919        40.01642        -0.11802
H         25.85981        41.85682         0.31235
H         25.87969        44.31473         0.39655
H         27.05008        46.44749         0.15444
H         29.53223        26.17579         3.05735
H         29.05256        47.75570        -0.36411
H         32.91458        23.73185         1.41102
H         30.90311        25.00236         1.93635
H         32.84136        49.88788        -0.58626
H         30.75561        48.70095        -1.04251
H         34.60182        22.83403         1.89320
H         34.42280        50.73668         0.08988
H         36.69583        21.65389         2.13259
H         36.47932        51.97578         0.24705
H         40.51259        19.75754         2.90108
H         38.35950        20.83201         2.46963
H         40.03218        53.82298         1.95234
H         38.08252        52.81324         0.83977
H         42.96906        19.73970         2.74234
H         42.38620        53.67817         2.71461
H         45.08413        20.82221         2.10658
H         44.49930        52.43936         2.86393
H         48.74607        22.71555         0.82376
H         46.67453        21.59493         1.39782
H         48.26984        50.30145         2.83335
H         46.17353        51.51566         2.81614
H         50.34361        23.57025         0.33020
H         49.87647        49.27501         3.05495
H         52.43436        24.74633        -0.01197
H         51.97230        48.05172         3.03529
H         56.17864        26.90891        -0.38844
H         54.07101        25.70498        -0.11867
H         55.81263        46.13551         2.25113
H         53.66438        47.25899         2.60671
H         57.40420        29.02417        -0.94667
H         57.41375        31.44846        -1.21042
H         57.40325        33.38051        -1.08866
H         57.36390        35.78422        -0.73603
H         57.30065        37.68617        -0.49612
H         57.21175        40.00482         0.21156
H         57.16131        41.75695         0.89957
H         57.08346        44.12072         1.55688
