         204
 CSIRO Nanostructure Databank - Neutral Graphene Oxide Data Set
C        -11.06627         0.69363         0.72875
C         -9.86037         1.46791         0.53498
C         -8.54148         0.73764         0.63817
C         -7.39240         1.47014        -0.01785
C         -6.16987         0.73154        -0.30203
C         -4.94611         1.45572        -0.50509
C         -3.71260         0.72837        -0.61670
C         -2.50343         1.45006        -0.77420
C         -1.24163         0.74536        -1.22097
C          0.00754         1.48577        -0.81397
C          1.23500         0.68703        -0.44642
C          2.52212         1.41365        -0.73792
C          3.78027         0.67397        -0.50928
C          4.97187         1.39465        -0.24304
C          6.18850         0.66771        -0.06466
C          7.37819         1.36785         0.27077
C          8.57274         0.61816         0.78666
C          9.86942         1.37726         0.61956
C         11.09011         0.61730         0.68254
C         -9.87246         2.82945         0.39103
C         -8.65777         3.57672         0.14122
C         -7.43447         2.83526        -0.13863
C         -6.26767         3.58823        -0.73610
C         -4.95694         2.86292        -0.57494
C         -3.74415         3.58166        -0.61008
C         -2.50722         2.86092        -0.70959
C         -1.27103         3.59825        -0.73347
C         -0.00643         2.85908        -0.70665
C          1.22402         3.60227        -0.47082
C          2.51284         2.89702        -0.59780
C          3.73874         3.58056        -0.16331
C          4.95697         2.82035        -0.03066
C          6.16178         3.48049         0.28165
C          7.38630         2.77183         0.36533
C          8.63122         3.50822         0.55190
C          9.85874         2.75303         0.58150
C         -8.64785         4.95727         0.13714
C         -7.42120         5.71058        -0.00018
C         -6.20898         5.02916        -0.29002
C         -4.98682         5.72470        -0.30747
C         -3.73828         5.01894        -0.51307
C         -2.51797         5.72045        -0.50205
C         -1.28913         4.99120        -0.63673
C         -0.01022         5.72547        -0.58630
C          1.23017         4.96965        -0.32582
C          2.45615         5.69602        -0.05860
C          3.67623         4.94569         0.08903
C          4.85653         5.65696         0.59496
C          6.16345         4.89644         0.67393
C          7.42471         5.66194         0.63669
C          8.63282         4.90297         0.59933
C         -7.40567         7.10242         0.21025
C         -6.20064         7.82628         0.16255
C         -4.97392         7.13435        -0.07368
C         -3.74076         7.85066        -0.06562
C         -2.50813         7.15778        -0.26924
C         -1.30798         7.87911        -0.15738
C         -0.01317         7.19432        -0.33502
C          1.15939         7.80652         0.39567
C          2.45938         7.08344         0.15304
C          3.67995         7.81024         0.32679
C          4.90137         7.11787         0.48354
C          6.14335         7.79060         0.60779
C          7.37069         7.05616         0.67666
C         -6.16711         9.24831         0.37246
C         -4.98481         9.93517         0.37226
C         -3.73064         9.26053         0.17200
C         -2.50945         9.96113         0.22036
C         -1.28287         9.28262         0.08499
C         -0.01398         9.97636         0.13601
C          1.20317         9.30740         0.19953
C          2.46092         9.96340         0.24218
C          3.67217         9.25269         0.34862
C          4.93621         9.91938         0.46762
C          6.11799         9.22428         0.58504
C        -11.04551        -0.66819         0.73291
C         -9.82992        -1.41241         0.43554
C         -8.64640        -0.70103         0.21748
C         -7.45658        -1.37681        -0.27867
C         -6.16213        -0.66425        -0.32167
C         -4.93564        -1.40446        -0.43179
C         -3.72285        -0.70070        -0.55309
C         -2.41406        -1.42292        -0.36078
C         -1.18319        -0.73195        -0.90500
C          0.00496        -1.41489        -1.03221
C          1.28468        -0.73434        -0.96033
C          2.50374        -1.39922        -0.95250
C          3.76698        -0.72604        -0.65653
C          5.00561        -1.45103        -0.57168
C          6.20349        -0.75849        -0.25731
C          7.47670        -1.44587        -0.12330
C          8.62348        -0.80643         0.31087
C          9.87884        -1.51353         0.43812
C         11.08701        -0.74969         0.66119
C         -9.83645        -2.83674         0.44559
C         -8.65608        -3.58396         0.29350
C         -7.44911        -2.90614        -0.21412
C         -6.14182        -3.57780        -0.12192
C         -4.94809        -2.85665        -0.30994
C         -3.70591        -3.58921        -0.41775
C         -2.50271        -2.89591        -0.62640
C         -1.28258        -3.64226        -0.96536
C         -0.01665        -2.89297        -1.21615
C          1.27462        -3.65559        -1.22375
C          2.55809        -2.86307        -1.17971
C          3.81465        -3.58687        -0.89692
C          4.99654        -2.89924        -0.74359
C          6.28694        -3.63469        -0.78058
C          7.57393        -2.87337        -0.48255
C          8.74508        -3.64185        -0.00496
C          9.91363        -2.89916         0.34471
C         -8.57070        -4.96034         0.57769
C         -7.34737        -5.67043         0.46040
C         -6.12746        -4.97448         0.13141
C         -4.89950        -5.69877         0.01419
C         -3.71630        -5.01880        -0.33655
C         -2.50880        -5.83043        -0.75123
C         -1.20920        -5.08296        -0.67377
C          0.01214        -5.75433        -0.58427
C          1.27122        -5.07834        -0.79775
C          2.48170        -5.77305        -0.71548
C          3.75837        -5.06806        -1.00987
C          5.05906        -5.83199        -0.74688
C          6.29447        -5.07841        -0.53046
C          7.46535        -5.74930        -0.14668
C          8.68722        -5.02372         0.06881
C         -7.29362        -7.06017         0.71448
C         -6.08565        -7.77914         0.64127
C         -4.88234        -7.11598         0.27008
C         -3.64384        -7.83435         0.25742
C         -2.44448        -7.18904        -0.11144
C         -1.20285        -7.85203        -0.00270
C          0.03009        -7.16807        -0.26928
C          1.26498        -7.84805        -0.14523
C          2.50291        -7.16634        -0.36976
C          3.74113        -7.86763        -0.16215
C          4.98357        -7.21425        -0.26209
C          6.20713        -7.86869         0.09082
C          7.41256        -7.15906         0.10203
C         -6.03978        -9.18266         0.96831
C         -4.85846        -9.86610         0.98886
C         -3.61662        -9.21519         0.66001
C         -2.39687        -9.89226         0.71126
C         -1.17893        -9.23090         0.41266
C          0.06082        -9.89998         0.50890
C          1.26942        -9.23995         0.24374
C          2.51091        -9.91685         0.40828
C          3.72081        -9.25646         0.23990
C          4.96959        -9.93065         0.49361
C          6.15906        -9.26761         0.43932
O          7.18042        -3.18165        -1.85865
O          0.85774         7.59192         1.81735
H          1.58751         7.98793         2.33909
O         -1.27819         0.79212        -2.69364
H         -1.19647         1.73131        -2.96500
O          4.50923        -5.63810        -2.11702
O         -8.21187         0.70718         2.08089
H         -8.23035         1.63520         2.39909
O          8.36494         0.52617         2.25014
H          8.29576         1.44426         2.59001
O         -6.51338         3.63771        -2.18961
H         -7.36750         4.10118        -2.32273
O          1.19362         0.56390         1.02017
H          0.35240         0.11553         1.25671
O          2.57720         2.22880        -1.94115
O         -2.16550        -1.33535         1.12868
H         -2.98231        -1.65527         1.57134
O         -2.71152        -6.08453        -2.20019
H         -2.49192        -5.25300        -2.67583
O          5.35796         5.14572         1.88565
O         -0.84242        -3.29354        -2.36907
O          0.21499         6.71278        -1.68867
O          2.00961        -3.36149        -2.45761
O         -7.67564        -2.20422        -1.47731
H         12.03642        -1.30045         0.73550
H         12.04282         1.16381         0.75468
H         10.81200         3.30460         0.56921
H          9.59535         5.43535         0.64496
H          8.31318         7.62469         0.70482
H          7.06792         9.77205         0.67179
H          4.94886        11.01942         0.46859
H          2.48993        11.06298         0.19163
H         -0.02578        11.07762         0.13240
H         -2.51632        11.04802         0.39133
H         -4.97545        11.02195         0.54167
H         -7.11654         9.77742         0.54102
H         -8.34778         7.62805         0.42615
H         -9.57858         5.50757         0.34174
H        -10.82416         3.38161         0.43746
H        -12.01706         1.23387         0.85312
H        -11.97502        -1.23476         0.89003
H        -10.76527        -3.35602         0.72613
H         -9.47313        -5.50231         0.89809
H         -8.21788        -7.58900         0.99230
H         -6.98014        -9.69027         1.22880
H         -4.83668       -10.93072         1.26431
H         -2.37318       -10.95294         1.00287
H          0.08066       -10.95512         0.81997
H          2.50456       -10.97315         0.71611
H          4.93913       -10.99582         0.76614
H          7.10127        -9.78693         0.66647
H          8.34179        -7.68273         0.37087
H          9.57766        -5.58459         0.38951
H         10.85131        -3.43963         0.54331
