         630
 CSIRO Nanostructure Databank - Neutral Graphene Oxide Data Set
C         22.90148        27.37395         0.15602
C         22.93401        28.74613        -0.02455
C         22.99259        31.76382         0.55326
C         23.02613        33.11207         0.48237
C         22.99331        35.92885        -0.47409
C         22.97565        37.16247        -1.04020
C         22.96142        40.20016        -1.46835
C         22.99571        41.55604        -1.42381
C         23.27354        44.36857        -2.15813
C         23.39944        45.68365        -2.56297
C         25.32248        24.57574         0.70923
C         24.12360        25.25802         0.56376
C         25.39968        27.35714         0.07553
C         24.10004        26.64533         0.33624
C         25.33747        28.82792         0.36725
C         24.15008        29.48877         0.16345
C         25.44094        31.67023         0.15822
C         24.11779        30.98030        -0.07468
C         25.44640        33.09188        -0.00376
C         24.22068        33.82003         0.02700
C         25.47141        35.85471        -0.57008
C         24.22624        35.19631        -0.29073
C         25.48386        37.24735        -0.94632
C         24.22362        37.86680        -1.34237
C         25.44616        40.13633        -1.09685
C         24.21369        39.44319        -1.49082
C         25.40542        41.56366        -0.95733
C         24.23944        42.27219        -1.26703
C         25.50568        44.42183        -1.11909
C         24.32058        43.69867        -1.47712
C         25.55945        45.79600        -1.43062
C         24.55607        46.42280        -2.21145
C         25.95714        48.42555        -2.41274
C         24.76741        47.75629        -2.67763
C         27.85298        23.10415         0.90037
C         27.82805        24.51830         0.84860
C         26.58675        25.25026         0.72183
C         27.85296        27.37111         0.68049
C         26.62596        26.64919         0.57921
C         27.86896        28.79207         0.62493
C         26.57876        29.55092         0.81654
C         27.88793        31.65656         0.25769
C         26.62669        30.97812         0.33231
C         27.91413        33.03088        -0.06293
C         26.68611        33.76418        -0.18924
C         27.95476        35.78619        -0.97867
C         26.68325        35.14488        -0.49490
C         27.95484        37.29180        -0.85157
C         26.68735        37.99189        -0.97423
C         27.93331        40.21177        -1.02274
C         26.64927        39.41980        -0.98018
C         27.88468        41.54452        -0.29273
C         26.57665        42.29860        -0.42574
C         27.83025        44.46658        -0.14153
C         26.64258        43.76269        -0.50896
C         27.78252        45.90141        -0.24452
C         26.58087        46.65409        -0.76499
C         28.13676        48.61883        -1.22060
C         26.93225        47.90611        -1.54302
C         28.44377        49.86459        -1.79551
C         30.28975        23.07858         0.80276
C         29.04337        22.40597         0.86964
C         30.30003        24.49831         0.82939
C         29.06894        25.22328         0.83887
C         30.32174        27.35812         0.93519
C         29.08512        26.65268         0.81255
C         30.32872        28.80118         0.86095
C         29.09225        29.50418         0.65496
C         30.35211        31.62966         0.43237
C         29.11505        30.93165         0.46580
C         30.38153        33.03766         0.16014
C         29.16852        33.73716        -0.13328
C         30.41478        35.82921        -0.40203
C         29.19077        35.11344        -0.43172
C         30.41479        37.24701        -0.62262
C         29.16074        37.97022        -0.79749
C         30.34844        40.11659        -0.59063
C         29.18156        39.42289        -0.73032
C         30.39928        41.49715         0.02989
C         29.12671        42.33162        -0.13472
C         30.39918        44.32628         0.49677
C         29.07634        43.69178         0.12595
C         30.56207        45.77469         0.70356
C         28.71851        46.81691         0.30050
C         30.20417        48.84330         0.35731
C         29.01710        48.07519        -0.21603
C         30.45477        50.12587        -0.42232
C         29.57879        50.58837        -1.38662
C         32.74278        20.25863         0.40564
C         31.55853        20.94850         0.55787
C         32.77358        23.06974         0.68904
C         31.53538        22.35760         0.69708
C         32.78215        24.50223         0.82128
C         31.54855        25.20881         0.87457
C         32.78365        27.31205         1.37056
C         31.53166        26.62407         1.02835
C         32.77588        28.85144         1.36089
C         31.53824        29.53259         0.95035
C         32.81397        31.65465         0.79183
C         31.57439        30.92894         0.69753
C         32.81149        33.05086         0.54189
C         31.61946        33.74107         0.17327
C         32.86876        35.88043        -0.19974
C         31.63878        35.15317        -0.11549
C         32.86340        37.25179        -0.53036
C         31.63163        37.93904        -0.65488
C         32.90144        40.17489        -0.84762
C         31.62091        39.40608        -0.84431
C         32.87547        41.62097        -0.52904
C         31.68628        42.24733        -0.26544
C         32.91624        44.45972        -0.09151
C         31.70457        43.64934         0.17951
C         32.88973        45.86664        -0.01204
C         31.63995        46.53237         0.33427
C         32.85435        48.76527         0.34389
C         31.56390        48.02318         0.50836
C         32.84865        50.23545         0.15350
C         31.64160        50.91373        -0.11397
C         32.81416        53.03426         0.10195
C         31.64984        52.32138        -0.18535
C         35.29449        18.81608         0.01645
C         35.23160        20.17865         0.27021
C         33.99088        20.93526         0.38562
C         35.24607        23.11205         0.44290
C         33.98916        22.34285         0.53356
C         35.24894        24.52387         0.83930
C         34.04006        25.21999         0.93005
C         35.29508        27.35601         1.27723
C         34.06715        26.62691         1.20286
C         35.29237        28.79966         1.33300
C         34.06602        29.55203         1.25370
C         35.27279        31.69571         1.38621
C         34.03391        30.94742         1.10950
C         35.32038        33.16149         1.08560
C         34.03796        33.85130         0.70113
C         35.33266        35.82527        -0.02967
C         34.11844        35.19850         0.07959
C         35.42338        37.21396        -0.51089
C         34.13884        37.97201        -0.77100
C         35.36081        40.15499        -0.64318
C         34.18051        39.45360        -0.70181
C         35.36557        41.61942        -0.59746
C         34.14610        42.33318        -0.51084
C         35.34223        44.50290        -0.50780
C         34.12777        43.76130        -0.37010
C         35.30723        45.93090        -0.46219
C         34.10861        46.61863        -0.18061
C         35.29933        48.80639        -0.00374
C         34.11080        48.05560         0.01373
C         35.31747        50.23165         0.24793
C         34.05471        50.95269         0.28466
C         35.27496        53.08098         0.81004
C         34.02380        52.36977         0.33500
C         35.28804        54.57171         0.59414
C         37.75754        18.75026        -0.16500
C         36.51522        18.12449        -0.19853
C         37.80425        20.15131         0.28413
C         36.50385        20.88654         0.48333
C         37.82703        23.02781         0.69066
C         36.54171        22.37197         0.33915
C         37.80996        24.42503         1.19034
C         36.50594        25.18551         1.22484
C         37.79500        27.33518         1.32535
C         36.54459        26.66080         1.25650
C         37.76841        28.76466         1.37451
C         36.55066        29.46444         1.35111
C         37.83467        31.65921         1.20000
C         36.57739        30.93693         1.48932
C         37.80227        33.05391         0.86217
C         36.60073        33.75596         0.70654
C         37.84849        35.89370         0.35505
C         36.63686        35.07011        -0.01674
C         37.82836        37.33820         0.17068
C         36.66020        37.97675        -0.25737
C         37.92983        40.18743        -0.40298
C         36.64760        39.40331        -0.62533
C         37.86524        41.65854        -0.31715
C         36.60580        42.35404        -0.55304
C         37.82907        44.51586        -0.66700
C         36.56629        43.76720        -0.60830
C         37.82044        46.00055        -0.58525
C         36.52848        46.73657        -0.85930
C         37.73159        48.85253        -0.22204
C         36.54860        48.14748        -0.28956
C         37.77378        50.27511         0.03206
C         36.52252        50.95797         0.22534
C         37.70742        53.11274         0.12605
C         36.54124        52.39951         0.32973
C         37.65194        54.58801        -0.23199
C         36.37757        55.25236         0.22250
C         40.24161        16.08798        -1.10347
C         39.04939        16.75327        -0.91714
C         40.25009        18.81961        -0.33345
C         39.00883        18.11181        -0.50088
C         40.28912        20.20605         0.00567
C         39.00373        20.98641        -0.11580
C         40.26317        23.00878         0.91894
C         38.99187        22.34482         0.55649
C         40.26639        24.48802         0.99597
C         39.08656        25.18425         1.12709
C         40.31039        27.31143         1.24459
C         39.06592        26.62668         1.27554
C         40.34543        28.77466         1.45066
C         39.02913        29.52386         1.54187
C         40.28704        31.65927         1.05402
C         39.04532        30.97280         1.23419
C         40.27706        33.07614         0.88433
C         39.04562        33.76206         0.74613
C         40.24707        35.91719         1.00214
C         39.01030        35.19887         0.64716
C         40.23472        37.41633         0.92650
C         39.03016        38.10655         0.41164
C         40.24803        40.25047         0.53742
C         39.08392        39.48297         0.19097
C         40.25656        41.64298         0.39316
C         39.03793        42.33134        -0.00126
C         40.20762        44.56921         0.29254
C         39.08490        43.77618        -0.27591
C         40.22794        46.03403         0.02703
C         38.98804        46.68470        -0.46952
C         40.28698        48.88194        -0.33065
C         39.00096        48.16222        -0.52704
C         40.27408        50.26002         0.28146
C         38.97831        50.98857         0.04982
C         40.18796        53.13010        -0.09656
C         38.98658        52.42414         0.02600
C         40.17828        54.60126        -0.14321
C         38.92561        55.32941         0.12717
C         40.19826        57.32520         0.77304
C         38.97176        56.65077         0.48981
C         42.71641        16.05982        -0.99342
C         41.48650        16.74153        -0.86332
C         42.72726        18.78260        -0.25543
C         41.48546        18.11756        -0.48330
C         42.73892        20.18319         0.05844
C         41.50964        20.86711         0.20430
C         42.78478        23.06291         0.44343
C         41.54766        22.27768         0.67947
C         42.77712        24.46082         0.60082
C         41.59679        25.14640         1.26541
C         42.77649        27.34384         0.93163
C         41.54847        26.64145         1.07426
C         42.78339        28.80869         0.94596
C         41.57010        29.52353         1.11106
C         42.75063        31.66648         0.80863
C         41.53656        30.94178         1.02133
C         42.75599        33.09795         0.76337
C         41.52598        33.80500         0.82594
C         42.74883        35.94933         0.81551
C         41.53970        35.21974         0.87538
C         42.74171        37.40395         0.84261
C         41.53682        38.09520         0.84542
C         42.79087        40.30786         1.01212
C         41.47441        39.55550         0.97449
C         42.73996        41.74849         0.70953
C         41.49975        42.37337         0.56565
C         42.78560        44.56706         0.32269
C         41.48549        43.84038         0.56541
C         42.78439        45.95503        -0.28637
C         41.52013        46.74016        -0.05120
C         42.74017        48.86196         0.06805
C         41.54612        48.12306        -0.12613
C         42.75140        50.29809         0.05405
C         41.54042        50.99787        -0.06315
C         42.74653        53.16745         0.10518
C         41.50961        52.45428        -0.42580
C         42.74576        54.54917         0.32612
C         41.50317        55.33036         0.11471
C         42.65028        57.30962         1.08715
C         41.42459        56.69431         0.66685
C         43.91803        16.70383        -0.70726
C         45.20324        18.74293         0.14804
C         43.94218        18.05373        -0.33222
C         45.18927        20.23174        -0.13310
C         43.98244        20.91994         0.03359
C         45.18152        23.09409        -0.08273
C         43.96953        22.36696         0.09738
C         45.18574        24.51145         0.07166
C         43.97128        25.20291         0.40717
C         45.26294        27.30944         0.64100
C         43.97351        26.62112         0.64942
C         45.27094        28.84870         0.72617
C         43.98250        29.54321         0.77377
C         45.20697        31.69020         0.51666
C         43.98041        30.96160         0.68837
C         45.21675        33.10908         0.52757
C         43.98283        33.82280         0.66834
C         45.22582        35.96707         0.58866
C         43.98664        35.24805         0.68999
C         45.23181        37.40124         0.62335
C         44.00694        38.12001         0.76697
C         45.25369        40.23808         0.66794
C         44.04056        39.53844         0.80377
C         45.26584        41.72737         0.92220
C         43.99190        42.45004         0.54019
C         45.26374        44.51937        -0.20543
C         44.01490        43.78058         0.20004
C         45.23559        45.98701         0.20914
C         44.00824        46.67143         0.22462
C         45.21472        48.87055         0.74798
C         43.93651        48.11254         0.47178
C         45.25303        50.31756         0.40515
C         44.00925        51.00939         0.15470
C         45.18545        53.16321         0.39163
C         43.97176        52.44008         0.21807
C         45.18846        54.54868         0.63896
C         43.93660        55.24757         0.68766
C         43.84474        56.63661         1.04511
C         47.57913        18.77724        -0.61180
C         46.47457        18.07078        -0.27584
C         47.57880        20.21438        -0.70254
C         46.39936        20.93788        -0.43836
C         47.57243        23.12026        -0.63336
C         46.38923        22.39208        -0.42348
C         47.61176        24.53149        -0.42530
C         46.42190        25.22523        -0.07847
C         47.62599        27.36299        -0.19896
C         46.46254        26.64352         0.08248
C         47.56702        28.85746        -0.42046
C         46.43599        29.57809         0.24235
C         47.65614        31.70538         0.07462
C         46.42736        30.97887         0.25049
C         47.67066        33.11462         0.18724
C         46.44578        33.82891         0.38560
C         47.69563        35.97268         0.36080
C         46.45226        35.25717         0.44138
C         47.70609        37.39495         0.41196
C         46.47059        38.11118         0.52055
C         47.73035        40.25969         0.47313
C         46.47938        39.54029         0.54740
C         47.74072        41.69513         0.42922
C         46.51822        42.41920         0.44793
C         47.74189        44.50467         0.11214
C         46.52294        43.79498         0.20604
C         47.69919        45.97377        -0.02695
C         46.44855        46.67580         0.30757
C         47.77597        48.83776         0.54880
C         46.51614        48.06505         0.88986
C         47.74891        50.31061         0.90921
C         46.46847        50.98092         0.41305
C         47.75022        53.20744         0.26248
C         46.45434        52.43794         0.18552
C         47.65317        54.58884         0.75653
C         46.45462        55.21132         0.89395
C         50.12050        20.27245        -1.06227
C         48.79908        20.90661        -1.15041
C         50.07892        23.14610        -1.00751
C         48.78928        22.44810        -1.10956
C         50.07997        24.55329        -0.76723
C         48.84590        25.25028        -0.54728
C         50.09415        27.37759        -0.54264
C         48.84706        26.66973        -0.47338
C         50.08513        28.86600        -0.81416
C         48.87185        29.58929        -0.29474
C         50.13483        31.70439        -0.19762
C         48.88292        30.96667        -0.14215
C         50.14135        33.12045        -0.03979
C         48.91447        33.83789         0.12134
C         50.17769        35.96719         0.21668
C         48.92862        35.25336         0.23487
C         50.18045        37.40357         0.26938
C         48.95029        38.11146         0.35149
C         50.19428        40.26377         0.30161
C         48.95160        39.54753         0.37782
C         50.20518        41.68687         0.27799
C         48.97285        42.40500         0.29314
C         50.22393        44.56988         0.21106
C         48.97454        43.83171         0.20348
C         50.24428        45.97528         0.23620
C         48.99705        46.73745         0.05040
C         50.24512        48.86263         0.80042
C         48.95343        48.17905         0.39802
C         50.23827        50.33212         0.45868
C         49.02224        51.04008         0.51049
C         50.23812        53.10541         0.09976
C         49.02627        52.44081         0.34691
C         51.26342        20.99689        -1.17165
C         52.52630        23.16915        -1.22109
C         51.28031        22.44340        -1.17851
C         52.54574        24.56602        -0.96832
C         51.30974        25.25960        -0.72277
C         52.58710        27.37519        -0.22074
C         51.29435        26.67771        -0.55633
C         52.57227        28.86300        -0.47866
C         51.38039        29.56988        -0.51313
C         52.57740        31.72992        -0.34351
C         51.35212        31.00811        -0.38680
C         52.60128        33.10229        -0.09639
C         51.38391        33.82819         0.01414
C         52.66189        35.96874         0.15739
C         51.40041        35.25537         0.14874
C         52.66637        37.40529         0.18361
C         51.42368        38.11860         0.22930
C         52.66491        40.26108         0.18970
C         51.42703        39.54312         0.24049
C         52.67449        41.68802         0.19493
C         51.44307        42.41145         0.22995
C         52.69680        44.54785         0.21412
C         51.45554        43.83384         0.23196
C         52.71341        45.97264         0.24158
C         51.47900        46.70502         0.31110
C         52.72116        48.82729         0.29200
C         51.49309        48.11444         0.39566
C         52.71968        50.26208         0.22980
C         51.46192        51.00673         0.23905
C         51.43461        52.40421         0.04587
C         54.92799        23.21030        -1.64531
C         53.74419        22.51624        -1.56340
C         54.99034        24.60316        -1.36289
C         53.79123        25.28399        -1.01653
C         55.03559        27.38603        -0.73576
C         53.82908        26.68775        -0.73449
C         55.05344        28.83893        -0.57211
C         53.83302        29.53749        -0.52955
C         55.14567        31.72633        -0.59838
C         53.81894        30.99524        -0.65854
C         55.15400        33.13181        -0.17827
C         53.88589        33.77832         0.30887
C         55.13101        35.95195         0.14461
C         53.88170        35.27050         0.13641
C         55.14388        37.38240         0.17512
C         53.90148        38.10758         0.18720
C         55.12149        40.26677         0.15675
C         53.90105        39.54711         0.17578
C         55.14243        41.67965         0.10668
C         53.91050        42.40110         0.15393
C         55.17040        44.53722         0.17710
C         53.92614        43.82638         0.16920
C         55.17286        45.94253         0.24214
C         53.95535        46.67296         0.24754
C         55.19168        48.83134         0.11767
C         53.95797        48.11272         0.22902
C         55.15115        50.23984         0.06915
C         53.94741        50.93246         0.12780
C         57.47229        24.67590        -1.70456
C         56.24576        25.31657        -1.37824
C         57.51013        27.37415        -0.91060
C         56.27075        26.69440        -1.01640
C         57.55683        28.73890        -0.27097
C         56.30154        29.53981        -0.50200
C         57.60887        31.63919        -0.26483
C         56.36724        30.93003        -0.43097
C         57.61212        33.05333        -0.15401
C         56.36232        33.78941        -0.04334
C         57.60658        35.92494         0.11312
C         56.37220        35.23250         0.12401
C         57.61859        37.36228         0.15710
C         56.38834        38.06118         0.22478
C         57.68268        40.26111         0.13423
C         56.38654        39.52712         0.33309
C         57.59696        41.64401        -0.47322
C         56.38061        42.41034        -0.01875
C         57.66815        44.52393        -0.12759
C         56.40777        43.79490         0.04100
C         57.67971        45.91662        -0.04537
C         56.47334        46.66876         0.46341
C         57.65253        48.76327        -0.21653
C         56.44493        48.12161         0.05038
C         58.66980        25.35623        -1.64775
C         59.96318        27.41700        -1.13263
C         58.71229        26.71101        -1.22088
C         60.00680        28.76048        -0.83118
C         58.83243        29.50355        -0.53439
C         60.06365        31.65579        -0.30237
C         58.84704        30.90814        -0.35081
C         60.06101        33.02056        -0.16054
C         58.84507        33.76607        -0.08459
C         60.05930        35.92830         0.01703
C         58.84526        35.19564         0.02543
C         60.07220        37.30684         0.00532
C         58.87473        38.06584         0.04002
C         60.06846        40.21445        -0.43005
C         58.91266        39.48543        -0.11814
C         60.07411        41.61891        -0.48274
C         58.90692        42.38687        -0.38656
C         60.10214        44.55984        -0.52570
C         58.89812        43.81129        -0.36001
C         60.09808        45.93263        -0.50899
C         58.88921        46.64948        -0.27039
C         58.86190        48.05853        -0.31394
O         29.50830        46.38015         1.37384
O         32.29377        48.43226         1.71048
O         41.00064        22.38752         2.05950
O         38.79386        44.05802        -1.68688
O         57.16762        40.08366         1.47934
O         44.32181        48.56792         1.85097
O         27.00772        41.66507         0.85107
O         39.73524        48.75577        -1.67343
O         35.94451        22.87953        -0.89161
O         48.60283        21.70963        -2.36217
O         34.54381        33.92574         2.09218
O         37.29401        20.40308         1.62260
O         45.55670        28.00254         1.90476
O         47.13020        52.93858        -1.04739
O         37.10293        24.56854         2.46573
O         32.66038        28.09697         2.60913
O         40.07151        36.72342         2.22378
O         37.55178        39.70855        -1.74475
O         39.77347        29.17528         2.75210
O         40.97640        55.17907        -1.25001
O         39.87385        45.46897         1.38795
O         48.35674        46.47135        -1.26608
O         32.22894        39.84462        -2.13196
O         54.46028        31.49997        -1.89183
O         35.86927        31.39526         2.69239
O         31.18037        43.69143         1.59503
O         24.30986        38.54371        -2.63469
O         42.06450        40.00483         2.25249
O         34.91344        37.40445        -1.89027
O         42.22085        44.46133         1.66525
O         40.32250        50.01329         1.73277
H         40.41497        50.87626         2.18806
O         30.45969        41.16432         1.45798
H         30.63760        42.01527         1.93698
O         37.62047        54.61235        -1.69815
H         36.87854        54.04332        -1.99236
O         47.72386        50.37323         2.37885
H         47.21838        49.57636         2.69092
O         42.86679        45.79983        -1.73779
H         43.72151        45.34181        -1.95228
O         41.60701        52.53886        -1.89160
H         41.50476        53.49703        -2.11474
O         29.83804        49.24813         1.69435
H         30.66472        49.24136         2.23418
O         41.82928        24.95011         2.70735
H         41.64992        23.99394         2.89005
O         52.67634        27.26111         1.25126
H         53.55114        27.61506         1.52088
O         57.37868        41.38924        -1.90838
H         57.39032        42.25432        -2.37004
O         45.29171        44.51226        -1.68088
H         46.10332        44.98968        -1.96249
O         27.98261        35.52029        -2.43687
H         28.83172        35.87213        -2.78036
O         35.27076        52.88686         2.26540
H         36.09219        53.28600         2.62141
O         57.57139        28.47452         1.19315
H         58.38121        27.95232         1.37927
O         46.67613        47.85627         2.35015
H         45.76376        47.70869         2.70423
O         28.08396        40.61694        -2.43149
H         28.11562        39.80382        -2.97928
O         53.92872        33.56027         1.78246
H         54.65966        34.11100         2.13772
O         36.82173        34.71163        -1.45209
H         36.68603        35.53227        -1.97616
O         25.89347        47.16402         0.46174
H         25.68780        46.38498         1.02216
O         47.22219        28.94379        -1.89502
H         47.12433        29.89947        -2.10400
O         49.95851        28.94290        -2.28738
H         49.02036        28.70870        -2.49907
O         56.64042        46.70535         1.93645
H         57.48783        47.16548         2.11759
O         45.15537        18.62025         1.62126
H         45.91970        19.11842         1.98089
O         25.55357        27.29987        -1.41529
H         24.78489        27.77978        -1.79552
O         26.43388        29.65430         2.28617
H         27.23830        30.09852         2.63051
O         50.22615        48.79958         2.27060
H         49.46464        49.35546         2.57011
O         38.82847        21.22654        -1.55078
H         39.64094        21.65049        -1.89758
O         23.89296        31.06740        -1.53038
H         23.89907        32.01933        -1.77004
O         45.32324        41.85824         2.38760
H         44.49739        41.47410         2.75479
O         36.41849        46.89576        -2.31240
H         37.25426        47.29827        -2.63321
H         21.93967        26.83976         0.16457
H         22.00183        29.29612        -0.21412
H         22.10578        31.24353         0.94362
H         22.17184        33.70216         0.84567
H         22.04112        35.42862        -0.24858
H         22.01794        37.64530        -1.27788
H         22.00859        39.67349        -1.61388
H         22.05477        42.11972        -1.48010
H         22.36821        43.81344        -2.43708
H         22.60253        46.16429        -3.14781
H         25.28502        23.48941         0.86234
H         23.17291        24.70774         0.62769
H         26.11843        49.40105        -2.89313
H         24.00826        48.22210        -3.32157
H         26.91543        22.53483         0.94066
H         27.79329        50.30372        -2.56263
H         29.00688        21.30936         0.89566
H         29.78811        51.55018        -1.87833
H         32.71005        19.16600         0.30508
H         30.61998        20.37953         0.55832
H         32.77061        54.13158         0.12874
H         30.71670        52.86410        -0.38880
H         34.36826        18.23688        -0.10256
H         34.38256        55.12871         0.88029
H         36.44547        17.06161        -0.46918
H         36.31161        56.34605         0.11780
H         40.24336        15.03477        -1.41900
H         38.10820        16.21147        -1.08256
H         40.15565        58.35925         1.14420
H         38.04053        57.21696         0.63163
H         42.71774        15.00200        -1.29280
H         42.62040        58.35430         1.42943
H         44.85174        16.12969        -0.77564
H         44.75579        57.17165         1.34488
H         48.49907        18.23326        -0.86793
H         46.53932        16.97618        -0.20553
H         48.57497        55.10678         1.06016
H         46.44397        56.25039         1.25118
H         50.18960        19.18880        -0.89359
H         50.23923        54.19250        -0.06068
H         52.22176        20.46154        -1.12875
H         52.35930        52.96108        -0.15258
H         55.83782        22.66481        -1.92770
H         53.74462        21.44374        -1.79778
H         56.08159        50.81846         0.00179
H         53.98145        52.02906         0.09613
H         57.47972        23.62116        -2.00920
H         57.67637        49.84703        -0.39664
H         59.60859        24.84706        -1.90891
H         60.88982        26.87891        -1.37808
H         60.97758        29.27405        -0.87574
H         61.02828        31.13327        -0.35205
H         61.02730        33.53795        -0.10409
H         61.02153        35.40181        -0.01517
H         61.04085        37.82253        -0.03415
H         61.02534        39.69457        -0.57610
H         61.05000        42.11503        -0.57963
H         61.04926        44.03302        -0.70163
H         61.02868        46.49434        -0.67391
H         59.79336        48.60620        -0.51515
