         630
 CSIRO Nanostructure Databank - Neutral Graphene Oxide Data Set
C         23.14284        27.52317        -2.03213
C         23.09821        28.87962        -1.79154
C         22.99286        31.73227        -1.13738
C         22.98508        33.10006        -1.01050
C         22.97253        35.99724        -0.59940
C         22.96759        37.37012        -0.47645
C         22.99160        40.29705        -0.36231
C         22.98549        41.68948        -0.24649
C         22.95179        44.59358         0.20617
C         22.94557        45.96623         0.33871
C         25.52275        24.64692        -1.90452
C         24.36953        25.37690        -2.10784
C         25.42983        27.34323        -1.10560
C         24.30458        26.74227        -1.73644
C         25.30269        28.75356        -0.67153
C         24.16974        29.55855        -1.15149
C         25.39286        31.66759        -0.58742
C         24.17696        30.96378        -0.93528
C         25.39395        33.10268        -0.57789
C         24.18151        33.82499        -0.74537
C         25.42076        35.97041        -0.55519
C         24.18402        35.26013        -0.63834
C         25.39440        37.39538        -0.53680
C         24.18125        38.10712        -0.46339
C         25.42549        40.28431        -0.32373
C         24.18542        39.56505        -0.38866
C         25.41717        41.71050        -0.21596
C         24.17390        42.42373        -0.15771
C         25.38025        44.58937         0.03368
C         24.16643        43.87527         0.01782
C         25.39164        45.98720         0.23885
C         24.16278        46.69846         0.34175
C         25.37829        48.82269         0.37225
C         24.18244        48.11928         0.39902
C         28.04808        23.17963        -1.64322
C         27.91903        24.48858        -1.22247
C         26.68567        25.24289        -1.34775
C         27.86242        27.27965        -0.46484
C         26.61893        26.60749        -0.93590
C         27.84609        28.74905        -0.17975
C         26.55390        29.50612        -0.20342
C         27.82473        31.67134        -0.11270
C         26.59937        30.96938        -0.34280
C         27.80466        33.08278        -0.07703
C         26.61775        33.81097        -0.34971
C         27.90255        35.92629        -0.26783
C         26.65431        35.24282        -0.40803
C         27.96387        37.37218        -0.53733
C         26.65513        38.14273        -0.66678
C         27.89631        40.27642        -0.32874
C         26.66787        39.59291        -0.41056
C         27.86663        41.70786        -0.24308
C         26.65987        42.40545        -0.20458
C         27.85044        44.53396         0.45480
C         26.68607        43.91410        -0.32575
C         27.85336        46.03464         0.30085
C         26.64669        46.72390         0.27898
C         27.88412        48.87450         0.53850
C         26.62639        48.16532         0.33516
C         27.90544        50.31002         0.74555
C         30.46262        23.08381        -1.17245
C         29.27608        22.47287        -1.56639
C         30.42859        24.47836        -0.77833
C         29.09528        25.15188        -0.53168
C         30.39712        27.31043        -0.35937
C         29.16497        26.62921        -0.93179
C         30.41339        28.78854        -0.34658
C         29.10133        29.53841        -0.37895
C         30.31092        31.60770         0.17639
C         29.09255        30.96598        -0.02484
C         30.30565        33.03763         0.52478
C         29.00521        33.81268         0.35483
C         30.33616        35.93921         0.24332
C         29.08186        35.26091         0.10739
C         30.35524        37.38890         0.15079
C         29.17376        38.11699        -0.15874
C         30.37166        40.23019         0.01031
C         29.15253        39.53487        -0.21424
C         30.43579        41.69643        -0.18409
C         29.13283        42.47729        -0.30421
C         30.36964        44.59111         0.19147
C         29.15894        43.89706         0.06110
C         30.38734        46.01640         0.36623
C         29.13011        46.77808         0.03282
C         30.32167        48.83632         1.11727
C         29.08385        48.18665         0.54909
C         30.34971        50.33503         0.90278
C         29.08120        51.00181         0.81783
C         32.99108        20.28980        -1.30795
C         31.78902        20.96593        -1.29438
C         32.94310        23.08564        -0.93641
C         31.73058        22.37452        -1.14170
C         32.89698        24.60696        -0.98357
C         31.58035        25.18473        -0.52986
C         32.75720        27.18958         0.54714
C         31.54406        26.60232        -0.15957
C         32.71334        28.73790         0.81164
C         31.60269        29.50321         0.11118
C         32.78861        31.60867         0.64010
C         31.56966        30.88595         0.25912
C         32.76000        33.03838         0.69495
C         31.57669        33.78259         0.51710
C         32.80703        35.93784         0.50814
C         31.55118        35.21529         0.45712
C         32.81352        37.36939         0.49157
C         31.56682        38.10175         0.37269
C         32.76121        40.28071         0.66168
C         31.53719        39.52367         0.34577
C         32.82453        41.74347         0.45341
C         31.64103        42.45042         0.20192
C         32.84029        44.57982         0.43986
C         31.62540        43.86867         0.23617
C         32.84606        46.00501         0.54498
C         31.59603        46.71331         0.53872
C         32.82136        48.81024         0.90028
C         31.61661        48.13800         0.75520
C         32.80998        50.25462         1.23675
C         31.55666        51.01946         1.00690
C         32.85346        53.11755         0.98341
C         31.65482        52.44604         0.94442
C         35.53757        18.87095        -1.35103
C         35.49146        20.30089        -1.20956
C         34.22464        20.97814        -1.13700
C         35.41814        23.09838        -0.62378
C         34.16059        22.38835        -0.93163
C         35.36381        24.57062        -0.38411
C         34.09192        25.32480        -0.40794
C         35.31146        27.37074         0.26143
C         34.07155        26.63354         0.00822
C         35.27750        28.76801         0.57470
C         34.04072        29.47004         0.64935
C         35.27361        31.54309         1.31077
C         34.00784        30.87974         0.77772
C         35.29181        33.06618         1.19457
C         34.00128        33.79889         0.96359
C         35.27815        35.91804         0.67120
C         34.03059        35.24154         0.64039
C         35.28377        37.34362         0.57866
C         34.04901        38.04600         0.54193
C         35.28070        40.27260         0.39451
C         34.04935        39.51226         0.71791
C         35.30022        41.73114         0.57838
C         34.05772        42.43834         0.56598
C         35.30833        44.56711         0.57292
C         34.07031        43.86343         0.53008
C         35.31600        45.99452         0.60102
C         34.07558        46.71047         0.64328
C         35.32962        48.83416         0.83896
C         34.08736        48.13293         0.78702
C         35.38527        50.25392         1.05033
C         34.12192        50.99288         1.31070
C         35.33313        53.14927         1.11455
C         34.11545        52.46229         1.11444
C         35.41929        54.56921         1.04225
C         38.02101        18.86684        -1.74289
C         36.69092        18.19657        -1.56702
C         37.98689        20.36425        -1.36730
C         36.74162        21.02141        -1.16552
C         37.89802        23.15515        -0.72275
C         36.71691        22.43428        -0.90083
C         37.90368        24.63190        -0.59735
C         36.60303        25.37613        -0.51135
C         37.79249        27.41001         0.22265
C         36.55723        26.74739         0.01955
C         37.77864        28.80229         0.52711
C         36.53453        29.49381         0.64161
C         37.76686        31.61462         0.80127
C         36.54885        30.89069         0.83991
C         37.77047        33.07740         0.82230
C         36.56298        33.77594         0.89952
C         37.75694        35.91455         0.71908
C         36.53228        35.20325         0.76796
C         37.73340        37.34220         0.69476
C         36.53849        38.04178         0.62962
C         37.78345        40.28496         0.69907
C         36.57711        39.50835         0.43423
C         37.77269        41.67595         0.60199
C         36.52279        42.41116         0.55372
C         37.76803        44.55153         0.51143
C         36.53838        43.84668         0.57196
C         37.77803        45.97768         0.47790
C         36.54861        46.70032         0.58125
C         37.80441        48.83151         0.61140
C         36.56513        48.12900         0.67073
C         37.84820        50.25370         0.81651
C         36.59845        50.93285         1.07917
C         37.90340        53.14111         1.35136
C         36.59201        52.39485         1.34206
C         37.88293        54.58535         1.00950
C         36.61916        55.24325         1.00570
C         40.00495        16.37211         0.49875
C         38.91161        17.00656        -0.08753
C         40.42689        18.49916        -1.15282
C         39.10698        18.09470        -0.96831
C         40.50339        20.59453        -1.34911
C         39.18782        21.12398        -1.18986
C         40.35630        23.17668        -0.39336
C         39.15197        22.48945        -0.75822
C         40.31980        24.56728        -0.02444
C         39.11458        25.30981        -0.11580
C         40.22561        27.38213         0.59625
C         39.04159        26.69696         0.19170
C         40.25361        28.77602         0.77900
C         39.00786        29.50973         0.67126
C         40.30152        31.62345         0.47417
C         38.98962        30.91776         0.70595
C         40.26177        33.11027         0.71955
C         39.02450        33.79278         0.74897
C         40.26071        35.92149         0.66573
C         39.02488        35.22362         0.73439
C         40.26023        37.39723         0.34663
C         39.01642        38.06483         0.87898
C         40.30255        40.27566         0.78454
C         39.02930        39.55666         0.94430
C         40.23894        41.67428         0.68990
C         39.01983        42.39396         0.60038
C         40.19009        44.54039         0.17809
C         39.00917        43.83070         0.45057
C         40.21784        45.96426         0.10400
C         39.00330        46.68830         0.33006
C         40.25576        48.81309         0.22753
C         39.02241        48.11429         0.37918
C         40.28873        50.23687         0.42070
C         39.08572        50.93614         0.76437
C         40.33831        53.13377         0.62596
C         39.22127        52.36330         1.28958
C         40.29534        54.49933         0.44491
C         39.06979        55.25563         0.66775
C         40.26250        57.35681         0.25205
C         39.10538        56.68561         0.52666
C         42.47431        16.26849         0.95471
C         41.32272        16.89040         0.38186
C         42.74851        18.84466        -0.27280
C         41.51800        18.08992        -0.36135
C         42.80769        20.28439        -0.42384
C         41.64103        21.09797        -0.69794
C         42.77927        23.11670         0.15651
C         41.58467        22.46860        -0.28024
C         42.73840        24.50358         0.51491
C         41.51052        25.19049         0.45382
C         42.71963        27.32944         1.17792
C         41.41363        26.58260         0.90699
C         42.71481        28.79947         1.07967
C         41.49573        29.46934         1.01235
C         42.75380        31.66581         0.91556
C         41.44866        30.96571         1.24129
C         42.74370        33.08399         0.76591
C         41.48939        33.80740         0.75459
C         42.74246        35.97551         0.64977
C         41.49185        35.24028         0.70925
C         42.76390        37.40271         0.66336
C         41.53341        38.14182         0.69067
C         42.83542        40.25060         1.13177
C         41.52797        39.53726         0.80161
C         42.80869        41.74623         0.79170
C         41.49966        42.44037         0.65102
C         42.69434        44.44742        -0.37596
C         41.42625        43.75869        -0.03767
C         42.64028        45.93308        -0.56968
C         41.42084        46.67444        -0.17025
C         42.70289        48.80996        -0.22573
C         41.45974        48.09058        -0.07553
C         42.70691        50.23086        -0.09083
C         41.52716        50.92263         0.25761
C         42.60963        53.05168        -0.44928
C         41.65850        52.40492         0.55603
C         42.69127        54.54552        -0.26909
C         41.50141        55.23235         0.04590
C         42.68119        57.34814        -0.28583
C         41.48958        56.65029         0.01061
C         43.71561        16.83831         0.78727
C         45.16169        18.80762         0.25569
C         43.87764        18.14616         0.23199
C         45.20157        20.22483         0.18643
C         43.99126        20.96721        -0.01703
C         45.22706        23.06246         0.51687
C         43.99721        22.38462         0.19963
C         45.22452        24.45533         0.82227
C         43.97412        25.19585         0.84072
C         45.19025        27.32973         1.32862
C         43.96477        26.57721         1.02226
C         45.21194        28.79921         1.10600
C         43.98013        29.50767         1.01570
C         45.19665        31.65087         0.57553
C         43.94321        30.93198         0.85237
C         45.21042        33.12727         0.66205
C         43.96697        33.81867         0.67007
C         45.21048        35.95204         0.47817
C         43.96925        35.25262         0.60812
C         45.22742        37.37903         0.40572
C         44.01524        38.10647         0.56591
C         45.23936        40.23287         0.34606
C         44.05066        39.53539         0.58827
C         45.25474        41.68814         0.24510
C         44.02704        42.42119         0.26910
C         45.20150        44.50815        -0.26722
C         43.98805        43.77170        -0.09527
C         45.20934        45.91967        -0.45372
C         43.94469        46.66793        -0.64132
C         45.16453        48.80621        -0.52522
C         43.94270        48.12770        -0.42663
C         45.17737        50.24733        -0.51974
C         43.95101        50.95787        -0.31455
C         45.14055        53.07613        -0.67533
C         43.94665        52.35630        -0.42869
C         45.12537        54.50852        -0.79772
C         43.88314        55.24619        -0.55071
C         43.85736        56.66215        -0.53499
C         47.59360        18.75854         0.38084
C         46.38050        18.09514         0.37729
C         47.66059        20.17428         0.37009
C         46.44499        20.91153         0.34118
C         47.70233        23.01686         0.65410
C         46.45515        22.33584         0.49278
C         47.67822        24.43001         0.88112
C         46.46872        25.12209         1.03558
C         47.75781        27.34814         1.38716
C         46.47511        26.56521         1.40243
C         47.72623        28.79899         1.12231
C         46.47070        29.44788         1.00549
C         47.73789        31.62950         0.96305
C         46.48252        30.88278         0.66790
C         47.71002        33.12474         0.84387
C         46.42468        33.82276         0.61096
C         47.69312        35.91879         0.28415
C         46.44331        35.23544         0.46416
C         47.68748        37.34869         0.12637
C         46.46783        38.07235         0.22291
C         47.68235        40.19930        -0.06752
C         46.46966        39.50687         0.14237
C         47.70422        41.64992        -0.09895
C         46.45492        42.38103         0.02021
C         47.64913        44.53597        -0.24688
C         46.44139        43.80768        -0.15595
C         47.66396        45.93937        -0.39061
C         46.41845        46.63886        -0.47101
C         47.62176        48.75827        -0.82395
C         46.41834        48.07840        -0.62347
C         47.57933        50.19213        -1.28726
C         46.36946        50.94701        -0.78826
C         47.59198        53.07687        -1.09400
C         46.37311        52.36101        -0.83832
C         47.52755        54.45918        -1.25152
C         46.31733        55.15985        -1.11228
C         50.16068        20.19777         0.26998
C         48.92836        20.88285         0.41943
C         50.23731        22.98230         0.89644
C         48.92842        22.29055         0.58495
C         50.23543        24.45135         0.52158
C         48.94401        25.18228         0.70714
C         50.26386        27.36084         0.79999
C         49.03419        26.61106         1.11459
C         50.22887        28.76390         0.77263
C         48.96968        29.48367         0.88669
C         50.20022        31.63346         0.60001
C         49.00214        30.89711         0.78405
C         50.18213        33.05570         0.43693
C         48.96825        33.80453         0.49046
C         50.15497        35.86304        -0.28085
C         48.91218        35.18657         0.22710
C         50.15978        37.36133        -0.10146
C         48.92267        38.05899        -0.05410
C         50.14421        40.17090        -0.39790
C         48.91873        39.48281        -0.15693
C         50.16114        41.65197        -0.68276
C         48.89305        42.33405        -0.24296
C         50.19836        44.54806        -0.20072
C         48.90897        43.79643        -0.08452
C         50.14602        45.97783        -0.56190
C         48.90195        46.66627        -0.54258
C         50.10435        48.77086        -1.02149
C         48.87969        48.06697        -0.81208
C         50.10297        50.22518        -1.12941
C         48.87879        50.93731        -1.11648
C         50.09571        53.03272        -1.18849
C         48.86489        52.34792        -1.14075
C         51.39513        20.88174         0.23339
C         52.76464        22.98266         0.42348
C         51.47656        22.24142         0.45075
C         52.75727        24.47753         0.56026
C         51.48362        25.21701         0.69596
C         52.74819        27.33578         0.74082
C         51.49015        26.60982         0.73804
C         52.71149        28.76967         0.60764
C         51.45395        29.50092         0.59716
C         52.67232        31.65264         0.34419
C         51.45106        30.91499         0.52431
C         52.70268        33.05054         0.27100
C         51.43725        33.77602         0.27252
C         52.67848        35.90498         0.18650
C         51.41854        35.14987         0.12347
C         52.65542        37.38897        -0.01030
C         51.35551        38.07070        -0.21974
C         52.60509        40.16941        -0.88370
C         51.34892        39.47222        -0.42034
C         52.67612        41.61986        -0.50051
C         51.42695        42.32287        -0.04764
C         52.59773        44.44448        -0.75519
C         51.45542        43.79566        -0.39294
C         52.56170        45.86137        -1.26914
C         51.32766        46.64181        -0.89355
C         52.59907        48.73746        -1.16549
C         51.33468        48.05683        -1.06437
C         52.63982        50.21741        -1.45949
C         51.32537        50.93434        -1.23015
C         51.29582        52.33387        -1.27209
C         55.20705        23.00303         0.88336
C         54.04730        22.31058         0.74362
C         55.27679        24.45271         0.84516
C         53.97573        25.17013         1.12865
C         55.21221        27.31731         0.74906
C         53.97377        26.64124         0.79336
C         55.18170        28.78132         0.77985
C         53.91353        29.46579         0.52836
C         55.23020        31.61983        -0.00626
C         53.91451        30.88168         0.15548
C         55.22205        33.08895         0.05060
C         53.95272        33.77831         0.12021
C         55.15531        35.93793        -0.12913
C         53.95474        35.18468         0.05082
C         55.12370        37.31332        -0.39541
C         53.90799        38.06848        -0.39925
C         55.13127        40.17513        -0.79721
C         53.90164        39.43561        -0.65167
C         55.11174        41.59312        -0.87612
C         53.85984        42.30764        -0.71243
C         55.06269        44.45343        -0.96076
C         53.86464        43.74677        -0.79329
C         55.04614        45.90459        -0.97908
C         53.84268        46.60777        -1.00853
C         55.06821        48.75257        -0.86074
C         53.81583        48.03927        -1.03283
C         54.97608        50.18182        -0.60030
C         53.82708        50.86455        -0.78607
C         57.76109        24.50078         0.72314
C         56.46123        25.16282         0.73097
C         57.66281        27.33524         0.43177
C         56.45365        26.62689         0.66548
C         57.72619        28.74764         0.41377
C         56.50561        29.53238         0.64614
C         57.70935        31.61965         0.12281
C         56.50291        30.93665         0.24186
C         57.69631        33.05972        -0.01499
C         56.43836        33.76070         0.01711
C         57.70595        35.88579        -0.38841
C         56.46799        35.25841         0.19450
C         57.66911        37.27864        -0.86607
C         56.34458        38.01479        -0.86208
C         57.59419        40.18168        -1.00574
C         56.37106        39.48414        -0.86284
C         57.57702        41.61679        -1.05336
C         56.33101        42.31795        -0.99041
C         57.52977        44.48046        -1.11173
C         56.31137        43.75007        -1.02155
C         57.49988        45.91597        -1.13448
C         56.29735        46.61842        -1.00967
C         57.56663        48.72338        -0.69712
C         56.28148        48.06041        -0.87467
C         58.90301        25.15583         0.43994
C         60.15991        27.32798         0.20564
C         58.88136        26.57530        -0.04763
C         60.17738        28.67864         0.25404
C         58.94978        29.45782         0.24555
C         60.15376        31.65036         0.12800
C         58.95907        30.88843         0.18929
C         60.13136        33.02987        -0.00325
C         58.92128        33.76316        -0.08847
C         60.12240        35.94961        -0.60278
C         58.91034        35.21098        -0.34549
C         60.12323        37.31425        -0.77634
C         58.91285        38.06358        -0.88442
C         60.05206        40.25291        -1.15121
C         58.85673        39.47045        -1.03148
C         60.02733        41.62106        -1.18656
C         58.79881        42.35852        -1.11498
C         59.99712        44.56240        -0.99202
C         58.77698        43.78221        -1.10880
C         60.00138        45.91201        -1.06355
C         58.76518        46.67676        -1.44876
C         58.73202        48.08113        -0.91235
O         37.21623        52.82251         2.61812
O         29.47230        33.38630         1.68507
O         52.90630        23.88239        -0.76616
O         49.47337        24.89706        -0.64524
O         43.19859        46.31855        -1.87478
O         37.29200        25.27053        -1.79950
O         29.92975        42.13442        -1.49263
O         41.89435        26.80555         2.27679
O         35.91242        39.86276        -0.85676
O         27.43320        37.75362        -1.85522
O         52.72385        36.83987         1.36359
O         39.08362        38.69076         2.18732
O         45.73606        26.87841         2.63484
O         47.71123        32.45455         2.17384
O         34.55880        33.63260         2.33955
O         48.61612        26.89585         2.49525
O         40.69102        19.46104        -2.15250
O         55.88234        29.33813         1.97509
O         45.90598        31.17407        -0.65054
O         56.86650        37.42561        -2.11709
O         33.39140        39.91925         1.95828
O         27.91660        27.76944         0.90559
O         42.22770        42.51437         1.93003
O         25.58754        29.00447         0.75401
O         54.52042        31.07467        -1.19692
O         29.82227        29.28546        -1.63991
O         41.91339        43.73325        -1.42018
O         49.63327        44.26402         1.15322
O         33.43267        50.55150         2.54333
O         35.40095        23.65058         0.77782
O         40.12021        37.48795        -1.11471
H         40.88929        37.03289        -1.51860
O         29.15947        46.89652        -1.45426
H         28.88214        46.02612        -1.81887
O         56.61627        35.47249         1.65645
H         55.78584        35.17010         2.08396
O         27.62022        44.23196         1.86507
H         28.28179        44.72411         2.39538
O         32.37517        28.95108         2.21258
H         32.72084        28.18662         2.72686
O         50.33427        23.02696         2.37256
H         50.30163        22.10334         2.70124
O         32.97292        24.92538        -2.42468
H         32.14651        24.60014        -2.84249
O         35.25137        31.22922         2.73824
H         34.70988        31.93402         3.16744
O         50.10790        35.70050        -1.75991
H         50.01305        34.74178        -1.94774
O         40.61663        31.44599        -0.94133
H         39.89522        31.84964        -1.46750
O         41.17922        31.17090         2.65353
H         41.81996        30.64077         3.17211
O         38.32529        18.76966        -3.16077
H         39.24074        19.11402        -3.28717
O         58.75031        26.49344        -1.51553
H         58.75257        27.41204        -1.85936
O         26.95464        44.22879        -1.72522
H         26.27675        43.78212        -2.27446
O         32.71507        26.56564         1.87527
H         32.70244        25.59222         1.75393
O         42.97941        40.14129         2.57693
H         42.49246        40.90644         2.96433
O         28.83570        25.11087         0.89420
H         28.71263        24.17524         1.15572
O         51.33537        42.17080         1.39306
H         50.69960        42.86150         1.71104
O         52.48349        45.72109        -2.73858
H         52.44032        46.62628        -3.11507
O         47.39417        50.10492        -2.75378
H         46.56743        49.60103        -2.91407
O         42.02485        52.82217        -1.76797
H         42.62444        53.21540        -2.43614
O         29.22970        26.70661        -2.37145
H         29.46364        27.63987        -2.59581
O         50.23843        41.85179        -2.12066
H         50.95244        41.25456        -2.46463
O         52.88772        50.34084        -2.91020
H         53.77162        49.95303        -3.08608
O         53.79584        25.09777         2.58332
H         54.49907        25.63753         3.00258
O         39.67227        52.18405         2.67820
H         38.84868        52.18707         3.22758
O         58.81419        46.80609        -2.92029
H         58.82267        45.89652        -3.28749
O         52.45711        40.19537        -2.37434
H         53.28299        40.57878        -2.74346
O         42.26969        52.52514         1.86785
H         41.56301        52.32718         2.52900
O         30.20526        48.65382         2.58216
H         30.94589        49.14945         2.99566
H         22.29211        27.02835        -2.52210
H         22.21168        29.44186        -2.11473
H         22.04840        31.22066        -1.36489
H         22.03727        33.63529        -1.15202
H         22.00926        35.47184        -0.63005
H         22.00233        37.88865        -0.41436
H         22.02373        39.78352        -0.42703
H         22.01400        42.20027        -0.22513
H         21.99362        44.05768         0.22466
H         21.99356        46.50650         0.44212
H         25.53799        23.59145        -2.20668
H         23.49278        24.90637        -2.57534
H         25.33614        49.91954         0.41054
H         23.22895        48.66412         0.45388
H         27.19183        22.64558        -2.07851
H         26.96278        50.87278         0.73607
H         29.27889        21.42569        -1.89697
H         29.04704        52.09988         0.84201
H         32.97492        19.20356        -1.46234
H         30.86146        20.39162        -1.42085
H         32.83038        54.21236         0.89734
H         30.73641        53.03738         0.82990
H         34.60410        18.29585        -1.28479
H         34.49558        55.15964         0.97962
H         36.66133        17.10712        -1.71355
H         36.58317        56.33452         0.89102
H         39.84414        15.47032         1.10655
H         37.89842        16.62406         0.10101
H         40.26585        58.45512         0.19867
H         38.19094        57.26767         0.69968
H         42.36573        15.31649         1.49332
H         42.66966        58.44740        -0.30438
H         44.59698        16.32533         1.19707
H         44.77194        57.23546        -0.73578
H         48.51626        18.16501         0.42866
H         46.37052        16.99723         0.41594
H         48.43274        55.03680        -1.48153
H         46.33833        56.25028        -1.24004
H         50.16811        19.11454         0.09502
H         50.12265        54.13038        -1.20134
H         52.30271        20.30807        -0.00566
H         52.23024        52.90060        -1.38414
H         56.13756        22.43367         1.02657
H         54.06153        21.21277         0.81013
H         55.85409        50.70503        -0.19454
H         53.79335        51.93815        -0.55071
H         57.80816        23.43968         1.00783
H         57.58143        49.77239        -0.36774
H         59.86898        24.62967         0.47200
H         61.10309        26.76150         0.22735
H         61.13932        29.20245         0.34653
H         61.12872        31.14759         0.18366
H         61.09183        33.56116        -0.04232
H         61.08735        35.42583        -0.58039
H         61.09003        37.82896        -0.86515
H         61.02286        39.74332        -1.21654
H         60.97864        42.16110        -1.28299
H         60.94072        44.03806        -0.78432
H         60.94431        46.46824        -0.95178
H         59.68948        48.60633        -0.77607
