         618
 CSIRO Nanostructure Databank - Neutral Graphene Oxide Data Set
C         22.92783        69.74672         2.07833
C         23.01643        70.72926         3.01738
C         22.08414        71.73385         3.46901
C         23.74529        73.65049         3.76958
C         22.48949        72.98830         3.90008
C         25.48859        65.62959         0.91107
C         25.43910        67.06287         0.96379
C         24.27918        67.69379         1.37361
C         25.45659        69.92005         1.19685
C         24.15738        69.15581         1.44090
C         25.73055        71.26613         1.76615
C         24.99898        71.76021         2.81115
C         25.94658        73.97743         2.61302
C         24.90094        73.16436         3.12460
C         27.96099        61.37908         0.88415
C         27.89207        62.80188         0.81927
C         26.69416        63.49696         0.76566
C         27.87104        65.64965         0.30384
C         26.66276        64.92969         0.64793
C         27.76051        67.09485        -0.11535
C         26.62556        67.82987         0.57513
C         27.70505        70.03801         0.00841
C         26.65324        69.18717         0.70956
C         27.85693        71.45847         0.56918
C         26.85454        72.05375         1.29990
C         28.09739        74.20030         1.45416
C         26.95323        73.43563         1.78928
C         30.46448        57.12553         0.87106
C         30.42249        58.52987         0.80152
C         29.20301        59.24745         0.89588
C         30.49384        61.36628         1.07996
C         29.16024        60.65875         0.89900
C         30.45297        62.87308         0.83561
C         29.14333        63.59901         0.80551
C         30.33895        65.70571         0.12692
C         29.09879        65.00670         0.33017
C         30.29931        67.15858        -0.01912
C         29.08049        67.82933        -0.01227
C         30.35088        70.03424        -0.03972
C         29.04025        69.29260        -0.15705
C         30.33723        71.45216         0.41595
C         29.07716        72.26074         0.15851
C         30.43665        74.30469         0.74507
C         29.20425        73.62716         0.81254
C         32.91197        52.84893         0.55463
C         32.92610        54.26040         0.54056
C         31.73578        55.00457         0.81097
C         32.93328        57.17122         0.61855
C         31.67681        56.39964         0.75799
C         32.87115        58.57268         0.22163
C         31.63889        59.26851         0.43702
C         32.67306        61.37847        -0.37613
C         31.59069        60.65110         0.34506
C         32.76674        62.85791        -0.08266
C         31.63363        63.56797         0.27711
C         32.80724        65.69098        -0.09268
C         31.57818        65.00903         0.13056
C         32.80869        67.15939        -0.41471
C         31.55165        67.89148        -0.04255
C         32.85466        69.99972         0.17040
C         31.60454        69.26983         0.10374
C         32.89253        71.40222         0.28266
C         31.65156        72.15550         0.54719
C         32.89312        74.28307         0.37388
C         31.66968        73.63587         0.50697
C         35.34176        48.54864         0.35048
C         35.29889        49.94209         0.09835
C         34.09187        50.68733         0.27788
C         35.18801        52.80275        -0.41520
C         34.03376        52.08191         0.15973
C         35.27025        54.26182        -0.25356
C         34.15122        54.95221         0.21243
C         35.38019        57.12047        -0.23556
C         34.23940        56.40898         0.37009
C         35.31918        58.54574        -0.43092
C         34.06157        59.27081        -0.17832
C         35.11282        61.40905        -0.91240
C         33.98852        60.65085        -0.35811
C         35.17697        62.87325        -0.68866
C         34.00032        63.54971        -0.34492
C         35.27696        65.65998        -0.20543
C         34.01137        64.98406        -0.21032
C         35.28535        67.08714         0.14667
C         34.06063        67.87018         0.02225
C         35.34548        69.98407         0.08059
C         34.09401        69.25914         0.12762
C         35.34358        71.40857         0.02980
C         34.11509        72.12151         0.18910
C         35.35411        74.24044         0.12430
C         34.12764        73.56276         0.22843
C         37.78368        44.26192         0.62488
C         37.77138        45.68145         0.46651
C         36.57844        46.41497         0.51356
C         37.78223        48.52161         0.02728
C         36.54795        47.82304         0.29873
C         37.75560        49.93850        -0.19473
C         36.52259        50.61465        -0.22015
C         37.75508        52.79569        -0.60220
C         36.49561        52.03067        -0.60505
C         37.71657        54.20346        -0.63414
C         36.51020        54.93905        -0.50453
C         37.73734        57.07194        -0.97848
C         36.52656        56.38568        -0.56110
C         37.69624        58.52129        -1.16111
C         36.44230        59.21402        -0.93628
C         37.61001        61.46006        -1.44084
C         36.35556        60.65368        -1.26973
C         37.63538        62.87022        -0.98646
C         36.45344        63.54748        -0.69705
C         37.73750        65.67456        -0.35676
C         36.47972        64.97050        -0.36844
C         37.81337        67.07095        -0.32465
C         36.62116        67.83826         0.06462
C         37.73759        69.98766        -0.46035
C         36.56785        69.29466        -0.10897
C         37.76936        71.40632        -0.43283
C         36.56855        72.11564        -0.14940
C         37.82527        74.22561        -0.12928
C         36.58288        73.55094        -0.06258
C         40.28132        40.04373         1.25032
C         40.21716        41.35522         0.78698
C         39.01849        42.11854         0.84203
C         40.24423        44.24038         0.41217
C         38.96413        43.50588         0.57635
C         40.20139        45.67166         0.06319
C         39.01403        46.38640         0.18104
C         40.22553        48.51666        -0.31831
C         38.99795        47.81015        -0.05104
C         40.21472        49.93462        -0.48015
C         38.98586        50.65765        -0.43269
C         40.22848        52.78197        -0.82685
C         38.98277        52.07159        -0.59166
C         40.20636        54.16878        -0.98938
C         39.01545        54.96350        -0.51165
C         40.14811        57.00667        -1.53963
C         38.92281        56.35806        -1.08213
C         40.11915        58.52054        -1.70641
C         38.86790        59.23133        -1.42878
C         40.16440        61.46368        -1.46140
C         38.89274        60.70989        -1.55534
C         40.19542        62.80642        -1.17187
C         38.96446        63.40175        -0.48379
C         40.28166        65.67402        -0.61525
C         38.99917        64.91785        -0.36121
C         40.22316        67.12253        -0.90928
C         39.00838        67.77926        -0.69193
C         40.22144        70.00298        -1.13448
C         38.91367        69.23116        -0.92275
C         40.23891        71.42807        -0.76583
C         39.01990        72.11362        -0.54639
C         40.30454        74.19243        -0.26344
C         39.03777        73.52955        -0.31774
C         42.79738        36.00248         2.64927
C         42.76984        37.29903         2.09613
C         41.54268        37.99223         1.87939
C         42.75424        39.92707         1.03321
C         41.50606        39.28816         1.34742
C         42.74029        41.25247         0.35555
C         41.40531        41.94760         0.05105
C         42.75806        44.14599        -0.15733
C         41.51406        43.45792         0.26495
C         42.73329        45.55131        -0.54669
C         41.39604        46.34161        -0.45113
C         42.67610        48.49179        -0.64177
C         41.44914        47.80902        -0.43714
C         42.66802        49.88323        -0.76676
C         41.44804        50.62269        -0.71561
C         42.72500        52.72605        -0.90288
C         41.46386        52.03743        -0.87669
C         42.74920        54.17471        -1.19268
C         41.43244        54.89368        -1.32197
C         42.67390        57.05177        -1.52766
C         41.45589        56.36075        -1.34935
C         42.69271        58.46962        -1.75587
C         41.42835        59.22307        -1.54348
C         42.65391        61.41987        -2.02930
C         41.43174        60.71057        -1.55851
C         42.63592        62.94800        -1.98709
C         41.43459        63.55332        -1.26856
C         42.69340        65.67644        -1.19704
C         41.48049        64.91846        -1.03583
C         42.68059        67.05902        -1.27847
C         41.44781        67.82483        -1.20846
C         42.69588        69.99013        -1.12590
C         41.47758        69.24083        -1.17776
C         42.70896        71.35013        -0.79543
C         41.48694        72.08632        -0.61331
C         42.80408        74.26118        -0.19839
C         41.49777        73.50199        -0.35980
C         45.26934        33.53599         3.96901
C         44.06200        34.10720         3.60328
C         45.25929        36.05496         2.67507
C         44.02072        35.38871         2.97594
C         45.26316        37.30637         2.02992
C         44.01878        37.95187         1.79649
C         45.22852        40.06024         1.35282
C         43.96095        39.29714         1.31714
C         45.23498        41.49864         0.94998
C         43.99914        42.05887         0.32997
C         45.20035        44.22585        -0.07102
C         43.98017        43.51642         0.04542
C         45.19008        45.61929        -0.34980
C         43.99028        46.29784        -0.52822
C         45.26912        48.44704        -0.82688
C         43.99021        47.78978        -0.34484
C         45.24336        49.88120        -1.14896
C         43.92425        50.60175        -1.07230
C         45.23405        52.75946        -0.83320
C         43.93552        52.05591        -0.89049
C         45.25759        54.26151        -0.79353
C         43.92614        55.01735        -0.73083
C         45.14237        57.03121        -1.61738
C         43.93289        56.37096        -1.39575
C         45.14124        58.44847        -1.83982
C         43.90767        59.15591        -1.83894
C         45.19952        61.34757        -1.78967
C         43.92980        60.63239        -2.05029
C         45.15303        62.79050        -1.55315
C         43.95758        63.50367        -1.51833
C         45.22626        65.66470        -1.38723
C         43.98005        64.91786        -1.00619
C         45.23616        67.05733        -1.47558
C         43.94124        67.78401        -1.58223
C         45.23968        70.02265        -1.42843
C         43.93686        69.29389        -1.53975
C         45.26453        71.38181        -0.87238
C         43.99791        72.06557        -0.43221
C         45.30486        74.20985        -0.60573
C         43.97835        73.54119        -0.88263
C         46.48156        34.21373         3.75038
C         47.70918        36.20776         2.98048
C         46.50092        35.46291         3.10808
C         47.81409        37.40311         2.25948
C         46.57495        37.84309         1.45987
C         47.58242        40.02706         0.75496
C         46.50275        39.33545         1.21973
C         47.70605        41.47246         0.67238
C         46.50878        42.16229         0.62459
C         47.77009        44.28929         0.20538
C         46.46011        43.60567         0.38846
C         47.78135        45.61113        -0.48512
C         46.47449        46.31767        -0.63987
C         47.75428        48.49040        -0.85625
C         46.47567        47.79222        -0.76391
C         47.75155        49.91003        -1.02111
C         46.51472        50.63953        -1.08952
C         47.71300        52.78870        -1.22587
C         46.49499        52.03039        -1.11570
C         47.70356        54.19872        -1.39134
C         46.46867        54.95922        -1.29216
C         47.61402        57.00493        -2.17880
C         46.40430        56.29892        -1.61257
C         47.61048        58.48287        -1.86358
C         46.38766        59.16809        -1.83852
C         47.63298        61.26038        -1.29425
C         46.36267        60.60989        -1.67395
C         47.63600        62.77468        -1.16252
C         46.38989        63.50721        -1.36169
C         47.69686        65.61887        -1.36125
C         46.44161        64.92250        -1.38949
C         47.69355        67.04019        -1.31579
C         46.47534        67.74744        -1.43101
C         47.68890        69.84915        -0.69129
C         46.51932        69.22858        -1.42099
C         47.72447        71.35043        -0.81117
C         46.48516        72.05297        -0.75256
C         47.76302        74.16527        -0.43685
C         46.49379        73.51070        -0.57293
C         49.05554        38.09555         2.33734
C         50.33683        40.22925         1.71913
C         49.44031        39.18927         1.51650
C         50.26138        41.50315         1.00525
C         49.00859        42.13532         0.59631
C         50.22115        44.27693         0.16997
C         49.03018        43.51679         0.28263
C         50.20234        45.69472        -0.07540
C         49.03333        46.38925        -0.38660
C         50.22165        48.54742        -0.62370
C         48.98931        47.80679        -0.63789
C         50.19487        49.93659        -0.86636
C         48.97816        50.63505        -1.04656
C         50.15667        52.78391        -1.44408
C         48.96109        52.07834        -1.23594
C         50.17430        54.18559        -1.69104
C         48.92697        54.90239        -1.65011
C         50.13046        57.01477        -1.95495
C         48.91718        56.30382        -1.86701
C         50.09373        58.46173        -1.91822
C         48.85842        59.17443        -1.78840
C         50.12832        61.29003        -1.47470
C         48.90287        60.57321        -1.56834
C         50.11377        62.72739        -1.31513
C         48.91614        63.47616        -1.30821
C         50.18155        65.59998        -1.29835
C         48.92941        64.89155        -1.34259
C         50.17435        67.01984        -1.27831
C         48.96005        67.75433        -1.21333
C         50.20122        69.89440        -0.95829
C         48.97896        69.15473        -1.03008
C         50.18111        71.32606        -0.83298
C         48.96272        72.02995        -0.75092
C         50.22407        74.12939        -0.34106
C         48.97719        73.47818        -0.54147
C         51.43753        42.24665         0.88823
C         52.67925        44.23891         0.12325
C         51.48289        43.59105         0.38617
C         52.69890        45.64842        -0.40918
C         51.49685        46.44873         0.13142
C         52.70228        48.53717        -0.55238
C         51.48071        47.87544        -0.38579
C         52.73205        49.94195        -0.91646
C         51.46423        50.73590        -0.73118
C         52.67023        52.66852        -1.97144
C         51.41066        52.00054        -1.55330
C         52.67014        54.15653        -2.19915
C         51.38780        54.88408        -1.97002
C         52.60623        57.03902        -2.17801
C         51.38679        56.29440        -1.99311
C         52.45013        58.40620        -2.30942
C         51.30487        59.18635        -1.93962
C         52.57819        61.30625        -1.20149
C         51.37630        60.59892        -1.61835
C         52.51127        62.66594        -0.85452
C         51.34065        63.43251        -1.11845
C         52.61619        65.52647        -0.73135
C         51.38389        64.85377        -1.10159
C         52.72230        66.98986        -0.90979
C         51.44423        67.75946        -1.22783
C         52.66708        69.88049        -0.68221
C         51.42872        69.20078        -0.97577
C         52.68293        71.28186        -0.66294
C         51.46789        72.07207        -1.05737
C         52.67475        74.10670        -0.19170
C         51.46381        73.47216        -0.48088
C         54.00134        46.37306        -0.04801
C         55.14318        48.47288        -0.73843
C         53.96650        47.82568        -0.47642
C         55.17846        49.89391        -0.99583
C         53.91636        50.59116        -1.17615
C         55.14107        52.80715        -1.38073
C         54.01047        51.93922        -1.87717
C         55.18091        54.15977        -1.61095
C         53.99183        54.89298        -2.17693
C         55.02159        57.02835        -1.21943
C         54.03849        56.43646        -2.28126
C         55.20227        58.54100        -1.20205
C         54.15005        59.44846        -1.57376
C         54.88128        61.16272        -0.02768
C         53.83451        60.61585        -0.92739
C         54.84371        62.62704         0.28329
C         53.60758        63.35945        -0.13803
C         54.76044        65.49507         0.61591
C         53.67169        64.82668        -0.19783
C         54.86296        66.97386         0.34641
C         53.84142        67.71249        -0.25346
C         54.80648        69.93410         0.56929
C         53.82781        69.13434        -0.26984
C         55.11484        71.28203        -0.03196
C         53.99496        72.00590        -0.73765
C         55.15396        74.09935        -0.14471
C         53.95078        73.46365        -0.32148
C         56.33867        50.62311        -0.90586
C         57.58818        52.80478        -0.85978
C         56.28161        52.10771        -0.67715
C         57.61138        54.19518        -0.97447
C         56.37745        54.90872        -1.24117
C         57.57234        56.99232        -0.84857
C         56.37159        56.31234        -1.16063
C         57.59431        58.45573        -0.74790
C         56.30443        59.13983        -0.66003
C         57.45356        61.25531         0.19344
C         56.21885        60.47947        -0.05805
C         57.37410        62.65753         0.45539
C         56.12567        63.37261         0.44923
C         57.32194        65.48201         0.82632
C         56.10511        64.76554         0.56756
C         57.30004        66.91514         1.04535
C         56.02260        67.63690         0.96368
C         57.37075        69.78480         1.01143
C         56.04940        69.15874         0.99163
C         57.55734        71.18184         0.47619
C         56.28632        71.91689         0.15647
C         57.67661        74.02909         0.21491
C         56.45271        73.34119        -0.34714
C         58.82066        54.91871        -0.74300
C         60.00393        57.04759        -0.24282
C         58.81816        56.31534        -0.64253
C         60.03206        58.42114        -0.02354
C         58.81669        59.20430        -0.33203
C         59.88697        61.29961         0.45697
C         58.68635        60.59738         0.16658
C         59.83242        62.68392         0.66509
C         58.59030        63.37594         0.66188
C         59.76118        65.46629         1.33879
C         58.55185        64.78932         0.90517
C         59.64764        66.85573         1.83274
C         58.42653        67.61642         1.47378
C         59.64222        69.79292         2.08412
C         58.46343        69.05937         1.45184
C         59.84016        71.23820         1.55189
C         58.49435        71.97823         1.40096
C         59.89843        74.08395         1.26986
C         58.66510        73.40041         0.89838
C         61.17274        59.16230         0.40712
C         62.31355        61.28695         0.92685
C         61.14552        60.55742         0.56891
C         62.32334        62.68330         1.04346
C         61.10724        63.48127         0.63070
C         62.21931        65.52099         1.61988
C         60.99322        64.83030         1.29890
C         62.21407        66.85662         1.99063
C         60.95721        67.61288         2.13396
C         62.15439        69.83023         2.58087
C         60.96507        69.07209         2.01168
C         62.18766        71.32604         2.29043
C         60.84677        72.04747         2.41823
C         62.15068        74.24953         2.33440
C         60.91947        73.48085         1.92246
C         63.49723        63.40319         1.31913
C         64.70285        65.52863         1.47945
C         63.49589        64.81074         1.47237
C         64.74231        66.92951         1.66626
C         63.48944        67.58543         2.12205
C         64.63929        69.79712         1.73457
C         63.47333        69.07390         2.32771
C         64.59356        71.29222         1.66371
C         63.34907        72.00740         2.05963
C         64.60727        74.11437         1.90466
C         63.41601        73.46482         2.05904
C         65.92723        67.66745         1.60261
C         67.10104        69.84551         1.53580
C         65.94599        69.09294         1.67824
C         67.09430        71.28635         1.54524
C         65.87729        72.00914         1.64831
C         67.09649        74.11120         1.69022
C         65.87248        73.41786         1.74503
C         68.30690        72.01657         1.49123
C         68.29843        73.40702         1.55694
O         43.60270        41.25245        -0.85016
O         39.85880        65.33863         0.76431
O         53.52552        59.15501        -2.78279
O         60.06153        67.08326         3.22506
O         48.69245        39.29946         0.32556
O         35.60325        52.32437        -1.73410
O         46.74895        37.13886         0.13735
O         24.29021        70.86652         3.61051
O         63.78064        68.21775         3.46128
O         55.29963        60.37786         1.13084
O         45.15405        41.13492         2.37836
O         35.37535        60.98054        -2.32288
O         29.74923        69.80112        -1.35583
O         30.90062        71.62686         1.73360
O         58.45566        59.12194        -1.76872
O         29.94025        63.53431         2.05517
O         53.42709        54.41619        -3.44365
O         41.87735        45.79052        -1.73426
O         43.19525        60.96234        -3.30993
O         41.13303        43.94880         1.59506
O         45.45253        53.52026         0.45786
O         53.80146        62.88938         1.28826
O         44.48751        50.18239        -2.39303
O         52.43580        67.39767        -2.27808
O         43.80185        68.58605        -2.81050
O         33.89425        56.90938         1.70668
O         47.08585        44.38293         1.51158
O         64.33366        70.45166         0.46104
O         41.57316        59.97386        -0.27180
O         39.33231        69.66745        -2.25735
O         24.40122        69.86987         0.16247
O         46.09943        69.89452        -2.63476
O         47.59372        61.89263         0.03435
O         36.06700        67.39938         1.34892
O         55.75539        68.39156         2.20814
O         42.21838        54.40804        -2.51525
O         38.17973        61.20259        -2.78135
O         47.14336        45.65306        -1.80001
O         51.83725        51.93131        -2.95353
O         40.05656        57.65636        -2.87351
O         52.64743        45.59339        -1.85706
H         51.86417        45.06363        -2.11586
O         54.32231        71.99401        -2.18164
H         53.49718        72.29201        -2.64560
O         43.66154        55.31196         0.67090
H         44.22234        54.69677         1.20248
O         56.71466        73.23980        -1.79225
H         55.89923        72.83777        -2.19788
O         54.59112        56.75134        -3.56105
H         54.18092        56.13986        -4.21312
O         60.43502        72.12766         3.79770
H         60.50351        71.21554         4.17640
O         62.21236        75.53886         1.72709
H         62.33078        75.41758         0.76285
O         51.50500        51.21644         0.65748
H         51.60354        50.43431         1.24084
O         41.11663        41.75400        -1.35375
H         41.98112        41.61674        -1.80844
O         61.91694        69.77875         4.02809
H         62.36891        68.95820         4.35198
O         60.51503        71.12916         0.28527
H         59.83955        70.94306        -0.41647
O         45.68112        37.61109        -0.72390
H         46.17273        38.09801        -1.42923
O         44.06485        47.95638         1.13525
H         44.81168        47.41236         1.46830
O         32.28574        61.31972        -1.81536
H         33.10448        61.43099        -2.35019
O         54.31503        65.41033         2.01048
H         54.09880        64.45677         2.17646
O         57.85462        72.03890         2.68843
H         58.55891        72.20367         3.36339
O         44.07455        64.78288         0.47106
H         44.87850        64.25348         0.66682
O         55.09943        45.69081        -0.65126
H         54.85281        45.54006        -1.58949
O         42.68775        75.57670        -0.73884
H         42.73350        75.48209        -1.71515
O         43.72831        73.61216        -2.30647
H         44.47582        73.18256        -2.77388
O         51.59404        72.26320        -2.53763
H         51.30814        71.42430        -2.96119
O         42.50227        63.42513        -3.36029
H         42.91520        62.73816        -3.93695
O         59.27263        69.81473         3.49796
H         59.29458        68.87529         3.80319
O         55.98407        52.23781         0.78582
H         56.04070        53.19285         1.00663
O         39.23497        55.15878         0.94148
H         39.25223        54.27179         1.36034
O         32.84412        67.20061        -1.90146
H         32.51865        68.08276        -2.18362
O         29.00604        72.47767        -1.28204
H         28.19381        72.99558        -1.46452
O         30.83514        61.18294         2.49148
H         30.40243        61.92684         2.97445
O         47.41991        69.55494         0.73424
H         48.17488        69.90280         1.25533
O         58.16682        71.03007        -0.85404
H         57.88734        71.81321        -1.39970
O         61.31881        63.79170        -0.79801
H         61.41468        62.93766        -1.27158
O         51.70829        46.52932         1.57754
H         50.87149        46.82995         1.98974
O         54.36073        56.74937         0.05293
H         54.83651        57.22409         0.76762
O         27.18836        70.18063        -1.35058
H         27.93400        70.55786        -1.87742
O         27.42951        67.11589        -1.54400
H         27.24122        68.05671        -1.77706
O         54.05318        70.24403         1.78426
H         54.29595        69.54760         2.44192
O         44.02862        72.11727         1.03202
H         44.24083        71.22115         1.36782
O         39.03900        62.87515         0.88005
H         39.55669        63.53278         1.40343
O         54.39628        51.59570        -3.24125
H         53.56042        51.46328        -3.74544
O         47.47824        56.92945        -3.64738
H         47.51652        55.98292        -3.90199
H         23.74243        74.71999         4.03436
H         25.97943        75.04820         2.86488
H         28.19224        75.21544         1.87033
H         30.46407        75.37431         1.00729
H         32.92634        75.38305         0.37339
H         35.36456        75.33946         0.17878
H         37.84946        75.31804         0.00085
H         40.33122        75.28115        -0.10731
H         43.02691        74.36239         0.89526
H         45.31583        75.30839        -0.52769
H         47.77559        75.25444        -0.27772
H         50.21872        75.18582        -0.02953
H         52.65358        75.15123         0.15872
H         55.18573        75.16927         0.11410
H         57.82050        75.07924        -0.08813
H         60.00335        75.14250         0.97968
H         62.08476        74.41698         3.44646
H         64.62150        75.21432         1.94312
H         67.10329        75.20889         1.74766
H         21.97020        69.52824         1.58270
H         21.00596        71.51621         3.43976
H         21.68227        73.63817         4.27648
H         24.57986        65.06931         1.17836
H         23.43067        67.08085         1.71481
H         27.01157        60.82029         0.87347
H         25.74070        62.95364         0.84699
H         29.52921        56.56954         1.03698
H         28.25885        58.68272         0.94495
H         32.00274        52.32878         0.89180
H         30.80589        54.44283         0.98742
H         34.40777        48.01979         0.59239
H         33.19984        50.14867         0.63223
H         36.82429        43.74730         0.78797
H         35.63134        45.88929         0.70771
H         39.36790        39.58418         1.66047
H         38.09674        41.61477         1.17444
H         41.85297        35.47987         2.86232
H         40.60085        37.49726         2.16048
H         45.28249        32.55251         4.45943
H         43.11699        33.58315         3.80654
H         47.42696        33.76538         4.08823
H         48.60929        35.81500         3.47932
H         49.75064        37.77146         3.12918
H         51.11129        40.13903         2.49640
H         52.38860        41.78205         1.18938
H         53.63379        43.69949         0.21917
H         54.14304        46.33065         1.06307
H         56.09126        47.92032        -0.65854
H         57.29693        50.11139        -0.72704
H         58.51782        52.26034        -0.63521
H         59.74584        54.35467        -0.55385
H         60.91910        56.46256        -0.06338
H         62.11996        58.62824         0.57750
H         63.24417        60.73101         1.11961
H         64.45457        62.86436         1.39388
H         65.64316        64.99071         1.28585
H         66.87354        67.13984         1.40810
H         68.06952        69.33131         1.43998
H         69.25874        71.47386         1.40097
H         69.24766        73.95906         1.51084
