         424
 CSIRO Nanostructure Databank - Neutral Graphene Oxide Data Set
C          1.46393         2.04023        -0.76919
C          1.41404         3.41345        -0.77433
C          2.64400         1.33541        -0.45373
C          2.58776         4.25970        -0.40758
C          1.63960         6.25628        -1.67984
C          1.65078         7.62547        -1.64146
C          2.85487         5.43588        -1.40842
C          2.82911         8.37042        -1.37339
C          2.03390        10.47959        -2.50775
C          2.18826        11.78358        -2.84627
C          2.73253         9.87446        -1.30247
C          3.13854        12.65820        -2.20299
C          2.24673        14.73117        -3.27054
C          2.35655        16.04460        -3.56342
C          3.25851        14.01156        -2.50510
C          3.63812        16.79975        -3.33848
C          3.47154        18.27858        -3.10078
C          3.85328         2.02707        -0.19009
C          3.87072         3.46654        -0.24642
C          5.05404         1.33132         0.05616
C          5.06986         4.15677        -0.10276
C          4.02183         6.26069        -0.89567
C          4.02632         7.69133        -1.01256
C          5.11437         5.59859        -0.32578
C          5.20511         8.42192        -0.68384
C          4.05331        10.56779        -1.09240
C          4.00059        12.07158        -1.10300
C          5.22081         9.87848        -0.78003
C          5.34327        12.73027        -1.01035
C          4.37684        14.78435        -1.99119
C          4.51316        16.14888        -2.29403
C          5.43059        14.11485        -1.27327
C          5.57189        16.90892        -1.73809
C          4.42059        18.98978        -2.46141
C          5.57888        18.34768        -1.84603
C          6.26144         2.01964         0.31537
C          6.27273         3.46411         0.27165
C          7.46345         1.33177         0.57447
C          7.43715         4.17667         0.61160
C          6.30418         6.31606         0.00272
C          6.35445         7.72805        -0.20900
C          7.44335         5.62721         0.52134
C          7.57272         8.42040         0.05914
C          6.44515        10.58785        -0.53240
C          6.48477        12.00210        -0.59335
C          7.74271         9.83073        -0.45154
C          7.69220        12.72476        -0.26819
C          6.60175        14.83312        -0.90003
C          6.63228        16.25376        -1.04344
C          7.71984        14.13774        -0.34694
C          7.70508        16.99842        -0.50048
C          6.60676        19.07869        -1.28258
C          7.68968        18.44085        -0.57350
C          8.65893         2.02928         0.85735
C          8.64332         3.47307         0.94856
C          9.87398         1.34542         1.05771
C          9.80821         4.16741         1.34029
C          8.59750         6.34565         0.87178
C          8.65857         7.73979         0.61021
C          9.63819         5.63029         1.71104
C          9.95505         8.45467         0.72994
C          8.84735        10.60348         0.23765
C          8.84114        12.02320         0.20899
C          9.97055         9.93093         0.71171
C         10.00980        12.74267         0.60346
C          8.86072        14.86872         0.12252
C          8.81134        16.32349         0.12183
C          9.98876        14.18238         0.61045
C          9.80107        17.05471         0.76414
C          8.65252        19.17790         0.09547
C          9.67554        18.54610         0.99230
C         11.07055         2.04130         1.32373
C         11.03995         3.47826         1.52847
C         12.30098         1.34997         1.36832
C         12.26588         4.14630         1.82768
C         10.97403         6.36601         1.85751
C         11.13234         7.74685         1.30074
C         12.25995         5.61360         2.03825
C         12.31983         8.53114         1.71704
C         11.14572        10.63887         1.12064
C         11.17943        12.04195         0.99388
C         12.29967         9.91110         1.62787
C         12.48539        12.81065         1.02922
C         11.11025        14.90387         1.17349
C         10.94199        16.36364         1.37934
C         12.31344        14.26492         1.44585
C         12.17255        17.19069         1.66558
C         11.02111        19.20626         0.79671
C         12.20828        18.58242         1.13094
C         13.52316         2.03432         1.49917
C         13.50472         3.46542         1.73368
C         14.75716         1.34922         1.38141
C         14.75285         4.15992         1.77899
C         13.52396         6.37616         1.93655
C         13.53441         7.76260         1.94973
C         14.79924         5.61014         2.20092
C         14.80610         8.47713         1.97213
C         13.46226        10.70774         2.07567
C         13.55219        12.12069         1.82382
C         14.81960         9.92514         2.22040
C         14.74906        12.87924         2.34260
C         13.50407        14.99143         1.81513
C         13.46044        16.46891         1.91182
C         14.73158        14.34312         1.95092
C         14.74647        17.24016         1.78500
C         13.46786        19.22903         0.96113
C         14.70910        18.63158         1.25939
C         15.97920         2.04636         1.34322
C         15.95103         3.48540         1.50806
C         17.21963         1.38421         1.14963
C         17.17489         4.21533         1.28942
C         15.99932         6.35234         1.67407
C         15.98627         7.78659         1.75217
C         17.13347         5.65199         1.29158
C         17.30438         8.51528         1.77445
C         16.04704        10.71120         1.93118
C         16.02166        12.15258         1.93416
C         17.20231        10.01407         1.63321
C         17.18541        12.88753         1.62616
C         15.97449        15.05836         1.80627
C         15.99643        16.47297         1.64011
C         17.18951        14.33181         1.61925
C         17.19447        17.17573         1.43638
C         15.92467        19.28352         1.03231
C         17.18858        18.62812         1.22520
C         18.43263         2.09516         0.99001
C         18.37070         3.54198         0.97433
C         19.67036         1.43844         0.76675
C         19.57599         4.28487         0.71253
C         18.26684         6.38394         0.69742
C         18.28746         7.88823         0.79388
C         19.55304         5.69367         0.56667
C         19.57039         8.55741         0.57896
C         18.45513        10.74261         1.39392
C         18.40729        12.21289         1.29680
C         19.64559        10.00041         0.85484
C         19.57003        12.91575         0.97765
C         18.39817        15.03519         1.34754
C         18.41948        16.46195         1.33523
C         19.60195        14.33693         1.02633
C         19.65688        17.16006         1.18215
C         18.38792        19.30904         1.16408
C         19.67105        18.62161         1.55995
C         20.87462         2.16028         0.50294
C         20.82148         3.60749         0.67278
C         21.97823         1.53177        -0.09546
C         22.00034         4.37574         0.75985
C         20.74228         6.41479         0.32969
C         20.72775         7.86295         0.23538
C         21.99890         5.74589         0.37096
C         21.95968         8.56832         0.01188
C         20.68292        10.76437         0.09699
C         20.71355        12.23161         0.32919
C         21.92956        10.02382        -0.40334
C         21.99747        12.94489         0.19581
C         20.79727        15.04561         0.69156
C         20.82350        16.47785         0.83407
C         21.98193        14.34279         0.32420
C         22.08161        17.19656         0.68519
C         20.93034        19.32871         1.15474
C         22.09381        18.64681         0.87110
C         23.02057         2.09517        -1.07356
C         23.15489         3.62556        -1.24663
C         24.35363         1.45354        -0.80279
C         24.37147         4.33784        -0.72586
C         23.19833         6.44054        -0.01461
C         23.16752         7.87595        -0.09405
C         24.37579         5.74179        -0.40079
C         24.41015         8.61136        -0.21166
C         23.21041        10.77034        -0.06897
C         23.20655        12.20136         0.04695
C         24.39877        10.04470        -0.06803
C         24.46621        12.91939         0.06992
C         23.20027        15.10482        -0.12154
C         23.24761        16.52674         0.36737
C         24.48032        14.33596         0.08698
C         24.52459        17.19687         0.39675
C         23.34554        19.33655         0.70966
C         24.54488        18.65051         0.53913
C         25.55633         2.15723        -0.76473
C         25.56942         3.61894        -0.72070
C         26.80401         1.47920        -0.71267
C         26.82357         4.32118        -0.66030
C         25.62136         6.46134        -0.45852
C         25.62321         7.90552        -0.32107
C         26.81643         5.74338        -0.62970
C         26.86960         8.63544        -0.35023
C         25.68332        10.72479         0.32274
C         25.69613        12.20968         0.08073
C         26.91293        10.00048        -0.16119
C         26.91651        12.89897         0.00816
C         25.70021        15.03571         0.17032
C         25.70945        16.47656         0.31051
C         26.93120        14.32159         0.07493
C         27.01449        17.15384         0.65927
C         25.79463        19.33005         0.41925
C         27.01237        18.63591         0.35302
C         28.03990         2.16940        -0.70801
C         28.05439         3.61089        -0.69604
C         29.26609         1.46779        -0.71432
C         29.31422         4.31480        -0.65115
C         28.07838         6.47972        -0.99872
C         28.15717         7.84785        -0.33035
C         29.35122         5.71958        -0.70441
C         29.36627         8.62215        -0.85468
C         28.16949        10.73016        -0.17994
C         28.17589        12.15887        -0.10302
C         29.37952        10.04161        -0.35780
C         29.38342        12.84562        -0.25939
C         28.17112        15.05031        -0.02929
C         28.22869        16.42366         0.13536
C         29.36978        14.31725        -0.56404
C         29.46660        17.14477        -0.02137
C         28.23693        19.29340         0.18705
C         29.47542        18.58899         0.07883
C         30.51327         2.13828        -0.64542
C         30.54265         3.57929        -0.56116
C         31.72718         1.42601        -0.66728
C         31.77447         4.26096        -0.40894
C         30.58149         6.43315        -0.54093
C         30.62894         7.85273        -0.53910
C         31.79858         5.70325        -0.32602
C         31.83779         8.54688        -0.32328
C         30.61847        10.72356        -0.32157
C         30.61761        12.14303        -0.29620
C         31.85542         9.98990        -0.30316
C         31.87132        12.84186        -0.30398
C         30.68592        15.00783        -0.31322
C         30.68089        16.45494        -0.23667
C         31.86260        14.29405        -0.36103
C         31.92455        17.16421        -0.24838
C         30.69350        19.28070         0.02643
C         31.93520        18.59768        -0.09929
C         32.97367         2.09245        -0.55760
C         32.99674         3.52174        -0.38260
C         34.19108         1.38696        -0.58746
C         34.23925         4.18343        -0.17716
C         32.99894         6.39846        -0.06330
C         33.05038         7.81807        -0.08203
C         34.22556         5.61451         0.19645
C         34.27649         8.55005         0.11151
C         33.07408        10.69134        -0.14689
C         33.06504        12.12917        -0.16241
C         34.28913         9.93644         0.05176
C         34.34081        12.88034         0.16634
C         33.13146        15.00196        -0.75113
C         33.14556        16.46714        -0.40159
C         34.39632        14.29095        -0.37079
C         34.37370        17.14505        -0.37851
C         33.16724        19.27790        -0.10586
C         34.39332        18.57941        -0.23217
C         35.43895         2.04591        -0.40773
C         35.45030         3.48111        -0.17030
C         36.63243         1.32949        -0.44628
C         36.71952         4.18383        -0.10835
C         35.53782         6.33386         0.38610
C         35.56550         7.85493         0.54243
C         36.76509         5.61045        -0.01062
C         36.80567         8.50764        -0.03496
C         35.58634        10.67813         0.32815
C         35.54267        12.06109        -0.32803
C         36.82196         9.91367        -0.10035
C         36.85435        12.80580        -0.23577
C         35.58938        14.95471        -0.43539
C         35.61552        16.41779        -0.50694
C         36.86024        14.22541        -0.33035
C         36.82266        17.09920        -0.50628
C         35.63731        19.24638        -0.21619
C         36.85301        18.53372        -0.34151
C         37.93274         1.97187        -0.07472
C         37.91957         3.46599        -0.28955
C         39.12826         1.28896        -0.67710
C         39.12709         4.15622        -0.55822
C         37.95710         6.31167        -0.27190
C         37.97517         7.76630        -0.29232
C         39.15037         5.58586        -0.57492
C         39.19794         8.45677        -0.57012
C         38.01825        10.61576        -0.34252
C         38.04512        12.07313        -0.33062
C         39.22919         9.88740        -0.54662
C         39.29251        12.76369        -0.43387
C         38.07580        14.90723        -0.44706
C         38.10008        16.36568        -0.83131
C         39.30655        14.19255        -0.43737
C         39.35083        17.07074        -0.37258
C         38.09519        19.19510        -0.23356
C         39.32945        18.48063        -0.18478
C         40.24075         1.97419        -1.00805
C         40.30878         3.42031        -0.89814
C         41.48256         4.11467        -1.19603
C         40.37403         6.26933        -0.85583
C         40.40241         7.72540        -0.81871
C         41.51886         5.51264        -1.15633
C         41.59583         8.44001        -1.00476
C         40.47205        10.58261        -0.69486
C         40.51169        12.03707        -0.59460
C         41.63334         9.83149        -0.92826
C         41.71222        12.75931        -0.67184
C         40.55490        14.89619        -0.45765
C         40.56209        16.35527        -0.28991
C         41.73415        14.15536        -0.57342
C         41.75012        17.06077         0.00324
C         40.54511        19.15923         0.08961
C         41.73524        18.44762         0.18101
O         34.83278         5.76157         1.54955
O         11.22106        16.90584         2.73950
O         22.37447         4.18930        -2.00593
O         14.04504        10.30434         3.38529
O         14.12580        17.02851         3.09969
O         11.48917         6.16502         3.20267
O         20.16398        11.63177        -0.95842
O         10.95770         7.80852        -0.16708
O         17.78886         7.24355        -0.41686
O         19.60057        10.29731         2.30566
O         35.70946        10.82215         1.77230
H         35.72607         9.89922         2.14359
O          3.25941         4.78370        -2.64782
H          3.44660         5.48225        -3.30895
O         33.11901        14.95002        -2.23622
H         32.24926        15.29486        -2.53283
O         25.75085        10.59326         1.80316
H         25.64716         9.63981         2.01196
O         35.32401        11.80712        -1.74220
H         35.25775        12.67371        -2.19823
O          9.02782         5.61330         3.04075
H          9.77052         5.52724         3.68512
O         28.39721         7.57333         1.07844
H         28.47230         8.43220         1.54615
O         23.06285        15.22677        -1.59375
H         22.99361        14.31644        -1.95394
O          8.20488         9.68078        -1.84937
H          9.03416         9.15519        -1.82548
O         12.95340        12.85005        -0.37530
H         12.20588        13.17124        -0.92381
O          4.38547        16.68962        -4.60707
H          4.52487        15.73399        -4.77827
O          3.28889        12.45782         0.16571
H          3.89622        12.24743         0.90816
O         14.69190        12.89759         3.80750
H         14.55358        11.96338         4.09892
O          2.29221         4.91669         0.85897
H          2.11602         4.22068         1.52579
O         21.86490         9.98357        -1.85794
H         21.27795        10.72911        -2.13206
O          9.22950        18.74857         2.37752
H          9.86116        18.23931         2.94276
O         23.11286         3.81330         1.31018
H         22.92149         2.88040         1.54603
O         29.22124        14.38548        -2.04341
H         29.03039        15.32043        -2.27221
O         19.67896        18.64996         3.04492
H         18.85905        18.20173         3.34606
O          1.87350        10.16055        -0.14761
H          2.03886        11.10794         0.09405
O         29.27557         8.75213        -2.29904
H         30.01058         9.32920        -2.59347
O         27.11609        17.06040         2.12749
H         26.34705        17.53979         2.50333
O         14.93322         5.57379         3.66751
H         15.05247         6.49822         3.97515
O         38.05372         1.77362         1.39334
H         37.30674         2.25544         1.80973
O         35.67511         8.11080         1.98653
H         35.18099         7.37577         2.42673
O         22.56303         1.62689        -2.37601
H         22.05713         2.37738        -2.77033
O         27.98171         6.64581        -2.43918
H         27.90431         5.75520        -2.83974
O         17.88387         8.27930         3.09808
H         18.64181         8.91123         3.18927
O         34.36094        13.06387         1.60639
H         34.74129        12.24508         2.01483
O         38.17903        16.36250        -2.31093
H         38.20992        17.29954        -2.59949
H          0.55215         1.46829        -0.99709
H          0.45133         3.91412        -0.95327
H          2.63517         0.23677        -0.43014
H          0.71705         5.73518        -1.97475
H          0.71892         8.17349        -1.84399
H          1.30696         9.86277        -3.05724
H          1.59785        12.18464        -3.68467
H          1.31948        14.19977        -3.53127
H          1.54236        16.55766        -4.09788
H          2.60282        18.78343        -3.54991
H          5.05251         0.23124         0.04369
H          4.32589        20.08188        -2.36028
H          7.47314         0.23185         0.55651
H          6.58648        20.17790        -1.32866
H          9.89982         0.24980         0.96135
H          8.60645        20.27742         0.06807
H         12.30705         0.26094         1.21108
H         11.05398        20.22218         0.37457
H         14.75028         0.25692         1.24900
H         13.46543        20.25912         0.57299
H         17.23087         0.28505         1.09640
H         15.92026        20.33355         0.70292
H         19.67674         0.34259         0.66409
H         18.38949        20.39974         1.01545
H         21.90050         0.43435        -0.19056
H         20.95861        20.42422         1.26251
H         24.37794         0.35468        -0.73846
H         23.35685        20.43383         0.79454
H         26.80960         0.37905        -0.71550
H         25.79583        20.42892         0.34867
H         29.25417         0.36851        -0.75611
H         28.25136        20.39269         0.12159
H         31.71066         0.33042        -0.76329
H         30.69351        20.37800         0.10719
H         34.18120         0.29674        -0.73279
H         33.18098        20.37330        -0.00395
H         36.60332         0.23853        -0.58946
H         35.66586        20.33823        -0.08351
H         39.09677         0.19326        -0.77199
H         38.10943        20.28596        -0.09018
H         41.12524         1.44730        -1.39765
H         42.38994         3.55582        -1.46691
H         42.46825         6.01312        -1.38808
H         42.53715         7.90731        -1.19340
H         42.60190        10.33219        -1.05809
H         42.66941        12.23494        -0.79361
H         42.70685        14.66501        -0.61039
H         42.70350        16.52350         0.09745
H         40.53338        20.24835         0.23838
H         42.67345        18.97569         0.40182
