         424
 CSIRO Nanostructure Databank - Neutral Graphene Oxide Data Set
C          1.26082         3.31344        -0.32227
C          0.02156         4.00053        -0.29184
C          1.12809         6.20341        -0.09203
C         -0.07300         5.37142        -0.23583
C          1.13383         7.66099        -0.38839
C         -0.01731         8.35503        -0.67860
C          1.10906        10.53586        -0.72858
C         -0.01823         9.76552        -0.91235
C          1.10797        11.97196        -0.90136
C         -0.05303        12.73496        -1.00938
C          1.12118        14.90475        -0.89096
C         -0.04855        14.14787        -0.98645
C          1.14255        16.32902        -0.66097
C         -0.05628        17.07153        -0.52746
C          1.17438        19.18025        -0.36542
C         -0.04280        18.44411        -0.38532
C          1.17417        20.62476        -0.20820
C         -0.02905        21.35986        -0.11039
C          1.18393        23.46895         0.09073
C         -0.02409        22.73593         0.03792
C          1.18983        24.91627         0.22819
C         -0.01823        25.63895         0.42895
C          1.16569        27.76965         0.44259
C         -0.03101        27.01245         0.53739
C          1.16086        29.21037         0.49927
C         -0.04530        29.95244         0.63003
C          1.16049        32.07665         0.59400
C         -0.04591        31.33055         0.66944
C          1.16900        33.51987         0.63180
C         -0.03101        34.28086         0.70771
C          1.21157        36.37553         0.74811
C         -0.01402        35.66128         0.75510
C          1.24972        37.80531         0.80432
C          3.73521         3.38795        -0.41878
C          2.48099         4.01021        -0.31518
C          3.66269         6.22355        -0.66750
C          2.45431         5.48288        -0.13113
C          3.60566         7.71222        -0.42390
C          2.41231         8.37401        -0.35906
C          3.64652        10.59605        -0.44507
C          2.34884         9.87670        -0.14374
C          3.65044        11.99257        -0.63525
C          2.39961        12.67175        -1.01448
C          3.65906        14.90966        -0.72487
C          2.40361        14.20364        -1.05240
C          3.62099        16.32993        -0.65786
C          2.39235        17.03969        -0.62176
C          3.64633        19.20567        -0.41597
C          2.39551        18.47642        -0.48596
C          3.64521        20.62394        -0.23832
C          2.40553        21.33655        -0.14900
C          3.65773        23.47698         0.01018
C          2.41063        22.75992        -0.00647
C          3.65514        24.91034         0.03037
C          2.40670        25.63141         0.15993
C          3.60771        27.80398         0.15016
C          2.39689        27.06845         0.25994
C          3.62171        29.21409         0.26195
C          2.38634        29.92851         0.41589
C          3.62893        32.06837         0.40030
C          2.38884        31.35904         0.47738
C          3.64296        33.49420         0.49422
C          2.41405        34.21455         0.60276
C          3.66937        36.35045         0.70090
C          2.43190        35.64556         0.68356
C          3.69078        37.78172         0.74204
C          2.44147        38.48470         0.79409
C          6.18896         3.44813        -0.07281
C          4.95627         4.12399        -0.23787
C          6.10188         6.27930         0.10889
C          4.93578         5.54805        -0.21117
C          6.09976         7.72907         0.03513
C          4.91976         8.42370        -0.62098
C          6.07254        10.62337        -0.20549
C          4.86102         9.90400        -0.33977
C          6.05715        12.03222        -0.25072
C          4.85783        12.74211        -0.53647
C          6.06362        14.93449        -0.02564
C          4.84824        14.18761        -0.54912
C          6.13059        16.36826        -0.43804
C          4.90132        17.07792        -0.90741
C          6.10642        19.21334        -0.36386
C          4.87664        18.52552        -0.50735
C          6.09795        20.61541        -0.17333
C          4.88277        21.32808        -0.14140
C          6.12109        23.49222        -0.04733
C          4.88571        22.77425        -0.03535
C          6.11635        24.91754        -0.11215
C          4.87319        25.60752        -0.09460
C          6.14542        27.82165        -0.21476
C          4.84521        27.07768        -0.19832
C          6.17032        29.22596         0.32950
C          4.85460        29.95321         0.20610
C          6.12656        32.10214        -0.00354
C          4.85244        31.33729         0.27327
C          6.12548        33.49866         0.55699
C          4.88909        34.20551         0.55483
C          6.13298        36.32631         0.68176
C          4.89596        35.62693         0.67821
C          6.14927        37.76192         0.65676
C          4.92150        38.46338         0.70797
C          8.63497         3.48206         0.34424
C          7.37023         4.15687         0.21200
C          8.50255         6.28255         0.83244
C          7.30325         5.56952         0.38475
C          8.46975         7.80701         0.78332
C          7.25139         8.45837         0.26148
C          8.52827        10.54632         0.11752
C          7.30819         9.89001         0.04181
C          8.58167        12.01862         0.13064
C          7.30628        12.77223        -0.00295
C          8.55381        14.88351        -0.41451
C          7.36290        14.22465        -0.27866
C          8.60045        16.32962        -0.41116
C          7.34846        17.05195        -0.41371
C          8.60439        19.17092        -0.35596
C          7.36126        18.48634        -0.40698
C          8.62795        20.59635        -0.25364
C          7.37758        21.31045         0.20530
C          8.56754        23.47813        -0.16945
C          7.36992        22.79051        -0.07565
C          8.59237        24.90875        -0.12169
C          7.37258        25.62798        -0.11501
C          8.61719        27.74654        -0.07176
C          7.41069        27.05822        -0.10959
C          8.68582        29.24409        -0.29491
C          7.40147        30.00135        -0.08305
C          8.46441        31.90878         1.12251
C          7.41688        31.34225         0.18093
C          8.59428        33.47170         1.19605
C          7.32718        34.17326         0.75632
C          8.60016        36.27620         0.57436
C          7.35344        35.59933         0.71372
C          8.60345        37.70525         0.46087
C          7.39757        38.42395         0.55444
C         11.09164         3.48628         0.60718
C          9.82717         4.16445         0.56995
C         10.99589         6.30645         0.91915
C          9.81748         5.60002         0.77492
C         10.98079         7.79369         1.21529
C          9.75804         8.50889         0.67767
C         11.04088        10.57454         0.15032
C          9.76357         9.83850         0.34488
C         11.04407        12.05298         0.03061
C          9.85932        12.72221        -0.12015
C         11.09471        14.88439        -0.43529
C          9.82533        14.11572        -0.70241
C         11.09077        16.29688        -0.49542
C          9.82806        17.01706        -0.47181
C         11.07397        19.16417        -0.44530
C          9.84006        18.45051        -0.44197
C         11.07318        20.57756        -0.40776
C          9.83612        21.27912        -0.32775
C         11.06187        23.41415         0.18575
C          9.86191        22.77614        -0.50310
C         11.09384        24.90660        -0.08492
C          9.84839        25.60918        -0.07370
C         11.09463        27.73409         0.00875
C          9.85311        27.02848        -0.05598
C         11.08815        29.15712         0.29242
C          9.89162        29.86273         0.35857
C         11.05832        32.01344         0.74948
C          9.84999        31.18008         1.11623
C         11.06830        33.39926         0.60023
C          9.83541        34.13353         0.65198
C         11.04503        36.22856         0.13097
C          9.82138        35.52607         0.44483
C         11.02172        37.66956         0.02419
C          9.84148        38.37608         0.21412
C         13.55639         3.49305         0.77170
C         12.28278         4.17958         0.73487
C         13.46867         6.33763         0.93249
C         12.26922         5.62675         0.86295
C         13.47082         7.77756         0.95971
C         12.29017         8.46829         0.88621
C         13.57625        10.64898         0.51335
C         12.31898         9.87304         0.43439
C         13.55735        12.05343         0.27495
C         12.31309        12.76036         0.01131
C         13.53336        14.93044        -0.03070
C         12.29041        14.15053        -0.19023
C         13.59073        16.24594        -0.77060
C         12.31721        17.04112        -0.55396
C         13.56095        19.19144        -0.61825
C         12.32633        18.44011        -0.53697
C         13.57871        20.57842        -0.51554
C         12.32979        21.31753        -0.36352
C         13.61791        23.44709         0.07069
C         12.33961        22.68054        -0.14834
C         13.55861        24.85438        -0.55819
C         12.29646        25.60017        -0.17145
C         13.56974        27.73094         0.05782
C         12.31329        27.02662        -0.05971
C         13.55871        29.14384         0.31767
C         12.34380        29.81799         0.52718
C         13.61780        32.04138         0.53790
C         12.31957        31.26301         0.80424
C         13.50472        33.43443         0.12363
C         12.30054        34.10637         0.23689
C         13.47350        36.23949        -0.33751
C         12.25061        35.53139        -0.02582
C         13.41990        37.67645        -0.48061
C         12.24470        38.35483        -0.29261
C         16.01670         3.48563         0.67495
C         14.75122         4.16883         0.75327
C         16.00837         6.39033         0.90212
C         14.74630         5.65952         0.50789
C         16.02647         7.76036         0.92742
C         14.75682         8.53438         1.19966
C         16.02200        10.63337         0.60008
C         14.77827         9.95923         0.70377
C         16.02325        12.03597         0.37337
C         14.79797        12.73797         0.29207
C         16.09628        14.90080        -0.05290
C         14.81894        14.20551         0.20280
C         16.05290        16.34974        -0.25847
C         14.86433        17.00373        -0.49674
C         16.04597        19.22883        -0.38924
C         14.84172        18.44949        -0.94408
C         16.11211        20.64504        -0.97599
C         14.81705        21.35619        -0.60930
C         16.07706        23.49381        -0.79389
C         14.83449        22.70413        -0.41547
C         16.04733        24.93604        -0.33878
C         14.83723        25.61530        -0.27608
C         16.04405        27.74174         0.08350
C         14.80061        27.02879        -0.03181
C         16.04830        29.15974         0.17245
C         14.81330        29.87587         0.26942
C         16.04910        32.00449         0.04580
C         14.82959        31.27533         0.22107
C         16.01604        33.41598        -0.17640
C         14.69750        34.05759        -0.55491
C         15.94016        36.26637        -0.58073
C         14.69364        35.56075        -0.46175
C         15.93516        37.69056        -0.74109
C         14.63731        38.42688        -0.95977
C         18.47171         3.49082         0.52443
C         17.21249         4.15490         0.74945
C         18.51984         6.31457         0.91503
C         17.24337         5.58412         1.23437
C         18.52705         7.77668         1.08778
C         17.26383         8.52254         0.95620
C         18.51488        10.61747         0.45007
C         17.27428         9.90543         0.72602
C         18.47059        12.02492         0.11108
C         17.27819        12.74097         0.17670
C         18.58595        14.90668         0.15092
C         17.27039        14.18535        -0.00928
C         18.54803        16.35853        -0.25602
C         17.33350        17.07065        -0.30941
C         18.56801        19.19505        -0.43653
C         17.34708        18.47360        -0.47369
C         18.56746        20.63768        -0.36677
C         17.35017        21.37305        -0.49108
C         18.55381        23.47972        -0.18255
C         17.34227        22.75743        -0.41022
C         18.53114        24.91519        -0.09717
C         17.28903        25.62356        -0.13037
C         18.51632        27.76022         0.16566
C         17.28035        27.03627         0.04475
C         18.50464        29.17543         0.28454
C         17.28562        29.87929         0.22224
C         18.50892        32.05558         0.09856
C         17.28011        31.31703         0.14547
C         18.47388        33.47004        -0.09914
C         17.20947        34.14297        -0.25528
C         18.40524        36.31125        -0.50429
C         17.17968        35.57973        -0.46725
C         18.37541        37.73081        -0.66964
C         17.12065        38.39328        -0.78963
C         19.64587         4.18203         0.48434
C         20.90636         6.34601         0.34361
C         19.68080         5.62636         0.63479
C         20.97718         7.69970         0.37195
C         19.84203         8.52244         0.82621
C         20.97111        10.67878         0.21369
C         19.74981         9.94901         0.45790
C         20.96764        11.97263        -0.17739
C         19.68298        12.65830        -0.55337
C         20.89111        14.86265        -0.75653
C         19.76174        14.15994        -0.41263
C         20.95289        16.27430        -0.65668
C         19.78743        17.03956        -0.43249
C         21.01280        19.21938        -0.32498
C         19.80112        18.48428        -0.42528
C         21.00768        20.58994        -0.19272
C         19.79251        21.33688        -0.20254
C         20.98862        23.52071         0.06916
C         19.78211        22.77278        -0.09474
C         20.97847        24.88980         0.11642
C         19.75825        25.63276         0.03288
C         20.97622        27.82737        -0.00438
C         19.75526        27.05523         0.09743
C         20.99386        29.17074         0.15169
C         19.77639        29.91324         0.63641
C         20.92705        32.13071         0.24169
C         19.75095        31.38447         0.27033
C         20.90319        33.51138         0.01605
C         19.69610        34.20377        -0.15409
C         20.83970        36.41357        -0.41508
C         19.66656        35.65028        -0.36218
C         20.79952        37.80569        -0.59480
C         19.58664        38.46308        -0.71566
O         19.38426         8.23924         2.19444
O         14.08255        14.90282         1.31456
O          7.76216        31.51538         2.30369
O          5.44047        27.61995        -1.46951
O          2.51469        13.41111        -2.28141
O          8.29473         7.08500         2.06200
O         11.78980         9.95866        -0.97681
O          7.87750        12.53141         1.36128
O          1.92930         5.92570         1.14175
O         13.16843        31.73945         1.90018
O         14.74012         5.78105        -0.97164
H         13.94438         5.30923        -1.29954
O         10.88520        23.27358         1.62142
H         11.69617        23.63861         2.04473
O         14.68948        39.74204        -0.39543
H         14.79380        39.65341         0.57392
O          6.37765        29.08749         1.77671
H          6.80211        29.94226         2.09373
O         19.85474        29.89499         2.11231
H         19.81858        28.95523         2.39120
O         10.10462        30.78790         2.49039
H          9.20397        30.87524         2.92677
O         16.25777        20.63651        -2.42154
H         15.86794        19.79496        -2.76713
O         16.08812        23.54461        -2.25706
H         16.14774        22.61271        -2.58001
O         13.74796        23.64958         1.51640
H         13.97959        22.78565         1.91978
O         10.07361        23.00156        -1.92969
H          9.30329        22.64072        -2.41601
O         15.78492        19.42111         1.03081
H         15.76325        18.53805         1.45706
O          2.19670        10.05566         1.31036
H          1.47157         9.46335         1.60385
O          8.69288        33.76280         2.62013
H          8.23658        32.97169         3.04026
O         14.88960        18.38425        -2.42791
H         14.03387        18.72469        -2.76851
O         13.62705        15.87460        -2.19099
H         14.11362        16.58743        -2.66681
O          7.42768        21.22021         1.67889
H          7.41908        20.26849         1.91629
O          5.90391        14.93892         1.45095
H          6.35163        14.13616         1.80234
O         19.49276        12.40655        -1.99778
H         19.47938        11.43394        -2.12410
O         18.80092        14.92229         1.62067
H         18.03988        15.39347         2.02272
O         14.53394        33.75367        -1.99904
H         15.30035        34.14999        -2.46623
O          3.62622         6.05713        -2.13614
H          3.78767         5.10636        -2.32421
O          5.19018         8.35075        -2.06854
H          4.76471         7.52446        -2.40693
O          5.01428        17.09971        -2.39490
H          4.20156        17.52858        -2.73975
O         14.78240         8.67421         2.67154
H         15.57121         9.20920         2.90493
O         10.85423         7.91271         2.67611
H          9.95713         7.55975         2.90204
O          9.79463        13.90667        -2.16685
H         10.66472        13.53803        -2.43213
O          6.07763        32.34498        -1.46660
H          5.23384        32.80594        -1.66254
O         17.21605         5.46920         2.70621
H         17.43213         6.35178         3.07761
O          8.97149        29.36819        -1.74930
H          8.13202        29.18157        -2.22310
O         13.46751        24.62860        -1.98865
H         13.65602        25.47157        -2.44986
H          1.26633         2.21745        -0.40692
H         -0.90184         3.40739        -0.36352
H         -1.05853         5.85070        -0.31886
H         -0.97602         7.82385        -0.75688
H         -0.95759        10.22746        -1.24784
H         -1.03175        12.23428        -0.99933
H         -1.02578        14.64979        -0.95823
H         -1.02445        16.55346        -0.54299
H         -1.00324        18.96565        -0.28472
H         -0.99850        20.84708        -0.15530
H         -0.98980        23.25399         0.10073
H         -0.97211        25.10188         0.51063
H         -0.99296        27.51706         0.69629
H         -1.00792        29.42854         0.69811
H         -1.00809        31.85036         0.76770
H         -1.00236        33.76860         0.72435
H         -0.95981        36.21977         0.80664
H          0.29913        38.35650         0.85045
H          3.78797         2.29197        -0.50007
H          2.45363        39.58386         0.82847
H          6.21623         2.35073        -0.14071
H          4.92947        39.56386         0.71675
H          8.65998         2.39148         0.20102
H          7.42075        39.52238         0.49482
H         11.10613         2.39034         0.50936
H          9.84550        39.47329         0.13500
H         13.55169         2.39327         0.82594
H         12.22712        39.44867        -0.40880
H         16.01184         2.39851         0.49354
H         14.52009        38.57269        -2.07327
H         18.46217         2.40683         0.33494
H         17.09625        39.48495        -0.92165
H         20.59154         3.65817         0.28320
H         21.77753         5.76113         0.01287
H         21.88949         8.20083         0.01743
H         21.92876        10.17982         0.42070
H         21.92029        12.50489        -0.30551
H         21.78102        14.33527        -1.12962
H         21.90705        16.77258        -0.87353
H         21.97347        18.68696        -0.30672
H         21.96945        21.10840        -0.08465
H         21.95031        22.99823         0.15695
H         21.92968        25.42210         0.24990
H         21.90730        27.31141        -0.27947
H         21.94477        29.71041         0.03847
H         21.89818        31.64675         0.41232
H         21.86013        34.04933        -0.00398
H         21.82110        35.93213        -0.31176
H         21.74038        38.37234        -0.63154
H         19.55172        39.55392        -0.84683
