         324
 CSIRO Nanostructure Databank - Neutral Graphene Oxide Data Set
C         30.41732        57.15646        -0.73067
C         30.41279        58.56136        -0.89168
C         29.23193        59.25697        -1.27933
C         30.41708        61.36580        -1.14148
C         29.24433        60.63090        -1.41668
C         32.67146        52.89336         0.20191
C         32.77918        54.31189        -0.12338
C         31.60012        55.04978        -0.22604
C         32.82046        57.18844        -0.20988
C         31.59638        56.46390        -0.40244
C         32.81689        58.61380        -0.28685
C         31.61042        59.30635        -0.64418
C         32.79212        61.56016        -0.38585
C         31.58730        60.72313        -0.74837
C         35.33690        48.64791         0.08111
C         35.21200        50.06538        -0.03466
C         33.94908        50.66066         0.22674
C         35.49095        53.05593        -0.51984
C         33.62354        51.97420        -0.20728
C         35.32785        54.39403        -0.10366
C         34.04583        55.03755        -0.13312
C         35.24337        57.16170         0.32442
C         34.03184        56.45614        -0.00028
C         35.16665        58.62505         0.49823
C         33.99824        59.35120         0.00388
C         35.26194        61.45953        -0.06960
C         34.05644        60.76938        -0.12784
C         37.79543        44.38509        -0.23650
C         37.76396        45.79357        -0.23501
C         36.57310        46.50585        -0.01928
C         37.74350        48.64657        -0.45989
C         36.52468        47.91851        -0.13662
C         37.53769        50.03809        -0.70286
C         36.42534        50.80544        -0.38759
C         37.78359        52.94021         0.24756
C         36.61133        52.26344        -0.27703
C         37.70437        54.33062         0.54555
C         36.50796        55.06494         0.34809
C         37.70944        57.22224         0.71332
C         36.45384        56.49331         0.53343
C         37.73948        58.65062         0.60270
C         36.50400        59.41335         0.61927
C         37.73462        61.45168        -0.04277
C         36.51988        60.81695         0.15836
C         40.24269        40.10235        -0.32904
C         40.27239        41.48709        -0.33766
C         39.04600        42.24514        -0.29341
C         40.27723        44.38006        -0.15146
C         38.99972        43.63496        -0.29822
C         40.30900        45.81832        -0.55601
C         39.00838        46.55544        -0.54376
C         40.28524        48.69909        -0.14307
C         39.01473        48.03819        -0.46667
C         40.31947        50.11691         0.20312
C         39.30357        51.02929        -0.18485
C         40.17948        52.83442         1.14606
C         39.01328        52.22760         0.48514
C         40.17715        54.36466         1.32304
C         38.81568        55.07504         1.28712
C         40.19576        57.23273         1.13040
C         38.89871        56.52153         0.87851
C         40.17364        58.65681         0.65108
C         38.98431        59.33919         0.47141
C         40.18095        61.48563         0.24117
C         38.99606        60.79144         0.19692
C         42.74385        35.79857        -0.01816
C         42.73319        37.22613        -0.11875
C         41.51681        37.89886        -0.19650
C         42.80165        40.06099        -0.68070
C         41.44453        39.30389        -0.56321
C         42.75662        41.51930        -0.49350
C         41.56065        42.17827        -0.37567
C         42.84100        44.38835        -0.21100
C         41.56649        43.63503        -0.15147
C         42.81727        45.78132         0.03524
C         41.63806        46.58706        -0.49489
C         42.52313        48.50710         1.02472
C         41.45122        47.95771         0.09925
C         42.67063        49.99988         0.89270
C         41.49097        50.73855         0.71136
C         42.64186        52.89482         0.99346
C         41.46917        52.17069         0.92441
C         42.64300        54.33902         0.97622
C         41.43765        55.04465         1.01200
C         42.69796        57.20313         0.65785
C         41.38483        56.46788         0.50261
C         42.71535        58.60602         0.55381
C         41.44248        59.34356         0.22027
C         42.74722        61.47978         0.36542
C         41.44771        60.79331         0.69749
C         45.32156        33.08528        -0.39236
C         44.12028        33.70977        -0.01307
C         45.07980        35.91581         0.56435
C         43.94287        35.11632         0.20797
C         45.21554        37.27199         0.26260
C         43.99948        37.96449        -0.11876
C         45.27088        40.08689        -0.18323
C         44.03024        39.34118        -0.31383
C         45.28215        41.46159        -0.34298
C         44.05002        42.25727        -0.65770
C         45.23181        44.34690         0.21986
C         44.05040        43.67621        -0.15351
C         45.22565        45.72185         0.58341
C         43.98223        46.41878         0.49050
C         45.17622        48.55728         1.22102
C         43.88574        47.79449         1.01957
C         45.12685        50.02825         1.13827
C         43.91090        50.68048         1.00626
C         45.16710        52.89215         0.68426
C         43.88724        52.14185         0.74889
C         45.12612        54.36015         0.75924
C         43.91296        55.04258         0.80864
C         45.14860        57.18486         0.59222
C         43.91084        56.48604         0.72449
C         45.16341        58.60834         0.51342
C         43.92856        59.32013         0.52329
C         45.21320        61.43656         0.32773
C         43.92904        60.77372         0.38620
C         46.60363        33.63643        -0.52293
C         47.84735        35.86758        -0.23912
C         46.95913        34.88192         0.08628
C         47.79904        37.18918         0.52989
C         46.48962        37.96517         0.26818
C         47.76616        40.07782         0.05072
C         46.51426        39.34070         0.03821
C         47.78841        41.46705        -0.00146
C         46.56407        42.24537        -0.39756
C         47.73643        44.27352         0.68277
C         46.45721        43.54953         0.37870
C         47.70780        45.73880         0.83205
C         46.47726        46.42169         0.87078
C         47.66821        48.56481         1.24656
C         46.49089        47.87037         1.05221
C         47.67498        50.03362         1.50679
C         46.38052        50.78195         1.33380
C         47.62261        52.89082         0.73476
C         46.43209        52.20642         0.97536
C         47.55116        54.28392         0.34989
C         46.37408        55.02366         0.50603
C         47.54785        57.15491         0.08407
C         46.36553        56.46626         0.40017
C         47.60205        58.57249         0.13230
C         46.40604        59.29973         0.37122
C         47.70475        61.49189         0.46965
C         46.39698        60.74437         0.35944
C         49.03289        37.98524         0.22898
C         50.25607        40.09236         0.04047
C         49.03062        39.36143         0.12149
C         50.26718        41.49192         0.09151
C         49.00956        42.19630         0.14524
C         50.20459        44.32681         0.48091
C         49.00712        43.59599         0.37138
C         50.17653        45.71812         0.83620
C         48.96895        46.40367         0.99296
C         50.20448        48.58389         1.18299
C         48.95848        47.81892         1.53557
C         50.12276        50.03317         0.78125
C         48.99996        50.83183         1.47590
C         50.06656        52.92202         0.44527
C         48.90437        52.23096         0.82026
C         50.04723        54.25713        -0.07552
C         48.69746        54.85640        -0.44513
C         49.94447        57.12334        -0.79018
C         48.67678        56.38977        -0.49384
C         50.04162        58.56764        -0.44948
C         48.86226        59.27046        -0.08320
C         50.14263        61.33837        -0.01246
C         48.92520        60.67964         0.09538
C         51.47187        42.24811         0.09267
C         52.65979        44.39959         0.19123
C         51.46064        43.63622         0.26695
C         52.68576        45.76169         0.49858
C         51.49512        46.34804         1.25828
C         52.75201        48.63746         0.89718
C         51.47720        47.88411         1.24818
C         52.69257        50.08020         0.60876
C         51.44301        50.78870         0.90449
C         52.59912        52.90774         0.02582
C         51.39709        52.28447         0.61847
C         52.50123        54.24486        -0.47949
C         51.23379        54.90311        -0.48227
C         52.48668        57.04828        -1.16935
C         51.19090        56.30326        -0.99080
C         52.48169        58.54921        -1.08298
C         51.26457        59.24713        -0.60542
C         52.59657        61.31587        -0.25577
C         51.33751        60.64289        -0.32509
C         53.85384        46.50005         0.24130
C         55.07842        48.62729         0.06785
C         53.93714        47.90283         0.39205
C         55.12344        50.06050         0.17072
C         53.85248        50.78971         0.33551
C         55.08002        52.81736        -0.41728
C         53.80647        52.19904         0.05862
C         54.96466        54.17942        -1.06420
C         53.70224        54.93784        -0.91091
C         55.04533        57.07122        -1.36792
C         53.76145        56.31503        -1.01880
C         55.06561        58.48624        -0.85279
C         53.81164        59.26244        -0.93504
C         55.05801        61.25897        -0.18172
C         53.80377        60.64683        -0.42013
C         56.30668        50.75807         0.12023
C         57.62157        52.92876         0.43161
C         56.26616        52.24181         0.39251
C         58.00811        53.94277        -0.37878
C         56.20235        54.95398        -1.24982
C         57.57031        56.99675        -0.75457
C         56.31860        56.30258        -1.05278
C         57.51657        58.36599        -0.50928
C         56.25900        59.10593        -0.54521
C         57.48640        61.25319        -0.17426
C         56.25945        60.54836        -0.27074
C         59.03882        54.94407        -0.20738
C         60.05504        57.08681        -0.45401
C         58.85447        56.28669        -0.50192
C         60.03311        58.45653        -0.32657
C         58.72149        59.09816         0.04641
C         59.93140        61.29822        -0.21546
C         58.71387        60.59315        -0.17782
C         61.22112        59.24081        -0.35534
C         61.16492        60.62668        -0.27727
O         46.91828        50.43672         2.70337
O         39.62357        46.04366        -1.82377
O         40.16059        53.44625         2.47307
O         46.10417        35.20437         1.18697
O         51.59786        51.76159         1.97221
O         52.41732        48.38722         2.31852
O         57.28448        54.14348        -1.56781
O         40.90107        44.06137         1.12923
O         38.58345        50.71841        -1.34154
O         46.97070        43.53833         1.73546
O         44.49094        52.42191        -0.57883
O         51.73535        56.51727        -2.32960
O         34.45925        52.45889        -1.24254
O         42.11166        39.57687        -1.85864
O         53.12306        59.15989        -2.25335
O         55.01873        52.93580        -1.86117
O         35.65947        59.13323         1.77949
O         44.47323        47.92650         2.36760
O         44.13969        42.43040        -2.24455
O         48.96180        56.87600        -1.85958
O         41.37793        59.35598        -1.23847
H         41.26938        58.41674        -1.52138
O         48.45185        54.37631        -1.80156
H         48.74532        55.09885        -2.40923
O         48.97023        47.68537         3.00329
H         48.24967        47.06805         3.25340
O         49.37944        51.04881         2.83963
H         48.56099        51.00744         3.38633
O         41.37950        60.74869         2.15793
H         41.37363        61.67002         2.49105
O         49.76348        50.03874        -0.64549
H         50.45521        49.55706        -1.14615
O         46.80828        42.64523        -1.79168
H         45.95597        42.57709        -2.28702
O         41.94799        48.27133         2.35671
H         42.70869        48.25470         2.98542
O         43.04843        43.26184        -2.66070
H         43.46205        44.15055        -2.79211
O         55.02527        57.17938        -2.83021
H         54.28058        57.78854        -3.05963
O         42.04385        46.83155        -1.88505
H         41.20543        46.85599        -2.41087
O         33.02011        62.56926        -1.38228
H         33.17137        62.12265        -2.24020
O         38.36376        55.16515         2.68668
H         38.67083        54.33456         3.12633
O         51.67659        45.92409         2.63512
H         52.13745        46.66331         3.09762
O         47.66805        62.71157        -0.28161
H         47.60459        62.48304        -1.23155
O         40.40658        57.21918         2.57834
H         39.66799        56.70793         2.98775
O         58.62151        58.94305         1.51209
H         59.39657        59.40049         1.90217
O         55.76931        52.40788         1.76409
H         56.24036        51.77300         2.34322
O         47.88254        36.93590         1.96223
H         47.19990        36.25330         2.17061
O         41.09642        56.42828        -0.93727
H         41.80813        55.90997        -1.37139
H         29.48617        56.59290        -0.89059
H         28.31308        58.68468        -1.47156
H         30.41084        62.46093        -1.23393
H         28.33346        61.16302        -1.72467
H         31.82098        52.57770         0.82477
H         30.63533        54.52125        -0.22017
H         32.54610        62.11789         0.56190
H         34.42920        48.07775         0.33240
H         33.19099        50.06355         0.75635
H         35.25460        62.54013        -0.27691
H         36.84196        43.84071        -0.15669
H         35.65515        45.95574         0.23548
H         37.74694        62.50443        -0.36383
H         39.29352        39.57745        -0.14244
H         38.10061        41.68183        -0.31505
H         40.17489        62.58256         0.13636
H         41.81527        35.24340        -0.21588
H         40.58348        37.35413         0.01143
H         42.76865        62.57885         0.28883
H         45.20835        32.05311        -0.76312
H         43.20230        33.11259        -0.12912
H         45.23743        62.53627         0.29334
H         47.35543        33.08908        -1.10935
H         48.53896        35.75271        -1.08495
H         47.82243        61.79855         1.54901
H         49.99382        37.44920         0.26285
H         51.20566        39.53747         0.01687
H         50.18231        62.42401         0.15778
H         52.43342        41.72504        -0.01573
H         53.57667        43.91180        -0.17454
H         52.60621        62.37229         0.05113
H         54.72142        45.96990        -0.18214
H         55.98904        48.09084        -0.23842
H         55.08653        62.32785         0.07814
H         57.26496        50.23383        -0.00809
H         58.18841        52.75705         1.35972
H         57.46121        62.35385        -0.14770
H         60.02527        54.63354         0.17303
H         61.02214        56.56622        -0.53809
H         59.90988        62.39735        -0.25489
H         62.18829        58.73446        -0.48978
H         62.09402        61.21206        -0.31900
