         621
 CSIRO Nanostructure Databank - Neutral Graphene Oxide Data Set
C          5.90789        31.67557        -0.42992
C          5.89585        33.03603        -0.34866
C          8.39324        27.41339        -0.11302
C          8.36898        28.81059        -0.11778
C          7.15123        29.53987        -0.29057
C          8.33535        31.65846         0.06840
C          7.12504        30.92651        -0.23398
C          8.29122        33.04479         0.25462
C          7.08665        33.78209        -0.01054
C          8.23423        35.96660         0.29667
C          7.08218        35.17656        -0.02838
C          8.25701        37.32865         0.12669
C         10.83754        23.13269         0.14512
C         10.83720        24.54439         0.12164
C          9.62282        25.28294         0.05352
C         10.85355        27.41697         0.10131
C          9.61085        26.68597         0.02343
C         10.84207        28.82545         0.09889
C          9.60280        29.54618         0.04777
C         10.80821        31.68156         0.40099
C          9.57956        30.94719         0.17450
C         10.77958        33.04592         0.70832
C          9.48369        33.74806         0.76468
C         10.71092        36.03547         0.80940
C          9.43433        35.27496         0.84533
C         10.69389        37.38602         0.66189
C          9.38069        38.15383         0.69466
C         10.61585        40.38760         0.73518
C          9.47429        39.57517         0.19746
C         10.79026        41.73738         0.08546
C         13.15084        18.67515         0.10771
C         12.88435        20.02620        -0.17142
C         11.88271        20.92354         0.23282
C         13.28242        23.07770         0.16370
C         12.01880        22.35706         0.12855
C         13.27949        24.49552         0.17452
C         12.08919        25.24805         0.13472
C         13.31083        27.40587         0.13327
C         12.10379        26.69910         0.13456
C         13.34440        28.84514         0.13902
C         12.07462        29.56907         0.16306
C         13.32881        31.66901         0.52154
C         12.04671        30.94966         0.33471
C         13.34600        33.12201         0.85588
C         12.01354        33.80063         1.03487
C         13.26311        36.04071         0.82176
C         11.98724        35.30903         1.04064
C         13.25024        37.42959         0.80932
C         11.96378        38.13967         0.59751
C         13.13097        40.37890         1.05755
C         11.92110        39.62658         0.60850
C         13.19697        41.79325         0.70701
C         12.00100        42.41719         0.13067
C         13.27063        44.52238        -0.18230
C         12.11357        43.75379        -0.37173
C         13.39150        45.82579        -0.69576
C         15.79431        14.61224        -0.62973
C         15.77297        16.00000        -0.36808
C         14.53900        16.69941        -0.24254
C         15.71818        18.81586         0.10376
C         14.46197        18.08938        -0.07217
C         15.76855        20.20927         0.41980
C         14.72598        21.10013         0.01051
C         15.64725        23.07287         1.16572
C         14.54546        22.40958         0.40336
C         15.80695        24.52130         0.74387
C         14.59436        25.18721         0.11483
C         15.82970        27.39987         0.25293
C         14.58938        26.68625        -0.20701
C         15.82740        28.87431         0.52110
C         14.55379        29.53784         0.09499
C         15.84389        31.78442         0.02601
C         14.56142        31.01257        -0.00542
C         15.81863        33.25534         0.31083
C         14.55944        33.93353         0.55213
C         15.68986        36.13458         0.29142
C         14.49375        35.32422         0.60625
C         15.70654        37.56084         0.66499
C         14.47861        38.18157         0.88019
C         15.69689        40.38577         1.15800
C         14.44828        39.61563         1.20707
C         15.63766        41.80054         1.16205
C         14.39783        42.47803         0.86050
C         15.69901        44.68250         0.62587
C         14.38952        43.93964         0.60521
C         15.81049        45.97018        -0.10926
C         14.61498        46.57072        -0.69262
C         15.94603        48.56242        -1.39333
C         14.67391        47.86867        -1.19987
C         16.04365        50.00351        -1.67486
C         18.28829        10.38716        -1.38596
C         18.24685        11.80034        -1.13902
C         17.03584        12.50563        -1.01751
C         18.24592        14.61241        -0.54882
C         17.00998        13.89980        -0.73289
C         18.23945        16.01240        -0.28507
C         17.00609        16.71333        -0.19979
C         18.16706        18.80969         0.46178
C         16.96106        18.11973         0.11957
C         18.14080        20.10057         1.00621
C         16.89645        20.77410         1.05644
C         18.11897        22.74953         1.91808
C         16.81950        22.15704         1.56547
C         18.18002        24.90952         1.58601
C         17.00702        25.36658         0.95696
C         18.29335        27.41131         0.34844
C         16.99674        26.71897         0.50294
C         18.32042        28.89414         0.27879
C         17.13159        29.59248         0.21407
C         18.31201        31.75141         0.21921
C         17.14105        31.05281         0.16286
C         18.32196        33.24655        -0.00478
C         17.00676        33.94844         0.23664
C         18.25597        36.20469         0.42889
C         17.02355        35.42378         0.15360
C         18.23020        37.56071         0.71852
C         16.95139        38.27363         0.80303
C         18.16778        40.34985         1.45008
C         16.92204        39.65045         1.08616
C         18.13607        41.86170         1.55944
C         16.87716        42.56625         1.19742
C         18.26112        44.57603         0.68574
C         16.92533        43.90017         0.88882
C         18.13694        46.08486         0.70485
C         17.00128        46.64669        -0.06567
C         18.35052        48.77522        -0.45347
C         17.19363        47.91455        -0.77926
C         18.39706        50.10720        -0.93199
C         17.22213        50.68821        -1.57163
C         18.55347        52.84850        -1.84818
C         17.26557        52.10635        -2.10822
C         18.68956        54.15579        -2.36892
C         20.79379         6.15888        -2.10611
C         20.72202         7.53731        -1.87814
C         19.50836         8.26377        -1.78705
C         20.74972        10.38990        -1.51181
C         19.48580         9.66222        -1.53658
C         20.73898        11.79489        -1.04194
C         19.47297        12.52540        -0.95454
C         20.72967        14.63124        -0.54980
C         19.47958        13.89848        -0.66413
C         20.68535        16.02354        -0.16756
C         19.48878        16.70091        -0.05559
C         20.68055        18.80817         0.77069
C         19.48897        18.20923         0.06266
C         20.69763        20.14317         1.15354
C         19.38907        20.74456         1.59822
C         20.59573        23.06489         1.86847
C         19.34581        22.26626         1.58738
C         20.67046        24.55033         1.59273
C         19.48425        25.31897         1.27743
C         20.81447        27.39135         0.72024
C         19.54620        26.62930         0.58516
C         20.70726        28.86641         0.87586
C         19.59464        29.56931         0.47262
C         20.50356        31.71292         1.43869
C         19.67391        31.08307         0.28653
C         20.59175        33.25075         1.33375
C         19.42542        33.98266         0.74458
C         20.77587        36.15206         0.85207
C         19.52906        35.44936         0.41760
C         20.70912        37.60243         1.11940
C         19.48275        38.27920         1.01255
C         20.65310        40.41676         1.50022
C         19.46864        39.68214         1.29342
C         20.60850        41.86836         1.64238
C         19.43336        42.56775         1.53124
C         20.65418        44.80621         1.37744
C         19.34973        44.07798         1.64871
C         20.66770        46.13634         1.05345
C         19.39819        46.86915         0.81519
C         20.63598        48.97070         0.39195
C         19.45410        48.22520         0.22890
C         20.63032        50.34568         0.05983
C         19.53936        50.90895        -0.63000
C         20.77457        53.06919        -0.86957
C         19.60536        52.28472        -1.12170
C         20.91263        54.39186        -1.39892
C         19.84380        54.91016        -2.18318
C         21.27018        56.94336        -2.70140
C         19.90866        56.29324        -2.77999
C         21.47406        58.11190        -3.41396
C         23.28991         3.39102        -2.66040
C         22.07114         4.05160        -2.50403
C         23.27593         6.13820        -2.21837
C         22.03783         5.45035        -2.26258
C         23.28701         7.57243        -1.90591
C         21.98799         8.28804        -1.71166
C         23.18220        10.53478        -2.04598
C         21.94326         9.76226        -1.75727
C         23.21564        12.00389        -1.73425
C         22.02084        12.59599        -1.05823
C         23.20388        14.82522        -0.91966
C         21.94243        14.05001        -0.88856
C         23.25478        16.05848        -0.09061
C         21.95101        16.62192         0.32735
C         23.17641        18.77248         0.99264
C         21.91930        18.04369         0.85719
C         23.15912        20.14638         1.22278
C         21.92250        20.84209         1.39874
C         23.17684        23.06804         1.62089
C         21.91797        22.29290         1.76646
C         23.18476        24.46287         1.61675
C         21.92714        25.17470         1.49539
C         23.22601        27.39207         1.51679
C         22.01681        26.62141         1.14208
C         23.18156        28.76576         1.46749
C         21.91193        29.53482         1.41488
C         23.15577        31.78257         1.32753
C         21.89165        31.03266         1.58673
C         23.14643        33.22538         1.36998
C         21.89804        33.96992         1.43497
C         23.07251        36.13712         1.80734
C         21.90267        35.36113         1.39482
C         23.14019        37.59758         1.62105
C         21.91798        38.30759         1.42292
C         23.15894        40.41078         1.69783
C         21.91538        39.73006         1.52298
C         23.16749        41.86805         1.97171
C         21.86580        42.61219         1.94043
C         23.19148        44.77929         1.40097
C         21.90782        44.11879         1.74815
C         23.15089        46.16610         1.01556
C         21.91217        46.87600         0.93931
C         23.10812        48.95793         0.48739
C         21.88642        48.27243         0.70399
C         23.11153        50.43850         0.12488
C         21.79991        51.16561         0.56242
C         22.76242        53.47451         0.39297
C         21.77109        52.58341         0.01679
C         23.08725        54.67429        -0.27863
C         22.11115        55.16332        -1.16859
C         23.52744        57.12042        -1.74567
C         22.30386        56.42455        -1.86233
C         23.75712        58.27853        -2.53211
C         22.72002        58.79359        -3.36675
C         24.17500        60.62327        -4.07687
C         22.94380        59.97283        -4.12320
C         24.50554         4.07599        -2.58511
C         25.76155         6.20288        -2.23350
C         24.52619         5.47623        -2.36778
C         25.80780         7.60683        -2.15066
C         24.51679         8.32509        -2.29326
C         25.75943        10.52448        -2.02393
C         24.48938         9.82025        -2.27012
C         25.74019        11.98854        -1.90394
C         24.49828        12.70003        -1.60192
C         25.75047        14.64634        -0.62363
C         24.49632        14.12450        -1.26199
C         25.73172        15.91279         0.17716
C         24.42687        16.63489         0.30943
C         25.72512        18.62833         1.24849
C         24.41251        17.94858         1.00507
C         25.71266        20.11793         1.49780
C         24.46423        20.90626         1.11388
C         25.76238        23.06879         1.64942
C         24.44592        22.31091         1.70027
C         25.70008        24.53289         1.48727
C         24.45572        25.20848         1.56551
C         25.68867        27.34277         1.46688
C         24.46853        26.64354         1.56347
C         25.71674        28.81615         1.54823
C         24.39183        29.57205         1.64847
C         25.51402        31.46426         0.59560
C         24.33380        30.99145         1.19459
C         25.54152        33.56439         0.71879
C         24.34008        34.00303         1.34071
C         25.65127        36.12679         1.64633
C         24.41187        35.36630         1.85037
C         25.63985        37.53010         1.63635
C         24.37421        38.27577         1.70804
C         25.66165        40.44233         1.82838
C         24.37431        39.70672         1.70568
C         25.70485        41.88694         1.50188
C         24.46963        42.64995         1.77808
C         25.61367        44.71745         0.94714
C         24.40123        44.07914         1.39023
C         25.59530        46.09919         0.59522
C         24.35552        46.83674         0.66480
C         25.51115        48.92209        -0.12602
C         24.30024        48.23077         0.37971
C         25.56974        50.38168         0.13016
C         24.45273        51.06658         0.53637
C         25.76907        53.20231         0.67745
C         24.64994        52.44008         0.93147
C         25.65283        54.69443         0.56085
C         24.37971        55.39046         0.01359
C         25.94420        57.22709        -0.98917
C         24.57486        56.67799        -0.78511
C         26.10353        58.38938        -1.78849
C         25.03528        58.94816        -2.51682
C         25.21514        60.11759        -3.29597
C         26.98080         8.37087        -2.03963
C         28.20146        10.49106        -1.64953
C         26.97608         9.80620        -1.94852
C         28.27925        11.87582        -1.41721
C         27.07442        12.70622        -1.67464
C         28.31250        14.73434        -0.64000
C         27.05455        14.12349        -1.14811
C         28.27360        15.98961         0.16706
C         27.02327        16.62255         0.41742
C         28.20808        18.66335         0.94873
C         26.99638        17.95660         0.85881
C         28.17591        20.13835         0.86615
C         26.99969        20.87860         1.39762
C         28.17403        23.04116         0.97288
C         27.00823        22.35504         1.27109
C         28.15852        24.50251         0.98414
C         26.91563        25.22295         1.23808
C         28.09584        27.38109         0.92534
C         26.90355        26.64773         1.22675
C         28.11239        28.78978         0.83973
C         26.90836        29.53310         1.05958
C         28.00571        31.70850         0.38899
C         26.80814        30.88456         0.69547
C         27.99824        33.22842         0.65723
C         26.80458        33.98461         1.08116
C         28.11650        36.06513         1.06562
C         26.95304        35.34655         1.74109
C         27.91792        37.49313         0.58114
C         26.85664        38.22346         1.36811
C         28.28381        40.39021         1.42844
C         26.97366        39.63829         1.67514
C         28.10233        41.80749         0.89991
C         26.86515        42.53560         1.08728
C         28.00595        44.64708         0.41359
C         26.83387        43.97802         0.82151
C         28.01314        46.03888         0.13590
C         26.80468        46.73900         0.19395
C         28.07898        48.90236        -0.33966
C         26.79819        48.15019        -0.22634
C         27.98344        50.24890        -0.43027
C         26.89242        51.00512         0.21181
C         28.34415        53.25089         0.42202
C         27.05756        52.48750         0.55622
C         28.27075        54.60571         0.37687
C         26.99657        55.37898         0.34222
C         27.05156        56.62808        -0.42178
C         29.45875        12.51306        -0.98686
C         30.70906        14.46715        -0.18424
C         29.54026        13.89648        -0.61394
C         30.83365        15.85683         0.39006
C         29.49458        16.62212         0.48267
C         30.63952        18.82433         0.99889
C         29.44851        17.99704         0.85450
C         30.71116        20.15805         0.65242
C         29.42703        20.88874         0.55280
C         30.62629        23.00513         0.40292
C         29.43497        22.35732         0.69352
C         30.55458        24.48039         0.22537
C         29.31432        25.18192         0.64359
C         30.61417        27.43542         0.41925
C         29.27318        26.63993         0.48256
C         30.55440        28.84388         0.78352
C         29.34420        29.51261         0.70045
C         30.50985        31.74001         0.94714
C         29.35486        30.97491         0.31579
C         30.53477        33.19070         0.66222
C         29.29576        33.89653         1.12209
C         30.40708        35.96462         0.07876
C         29.23368        35.36404         0.75442
C         30.38116        37.51465        -0.08818
C         29.22476        38.24687         0.44895
C         30.49598        40.31925         0.21794
C         29.31079        39.60388         0.63403
C         30.46114        41.72764         0.15163
C         29.23000        42.43484         0.39314
C         30.53809        44.58754        -0.09023
C         29.21196        43.86487         0.07351
C         30.52757        46.02151         0.40756
C         29.31309        46.72587        -0.18602
C         30.67959        48.92387        -0.01242
C         29.39768        48.21749        -0.40901
C         30.83764        50.27511         0.31147
C         29.87426        51.32320         0.07059
C         29.62298        52.53656         0.65550
C         31.90561        16.65207        -0.37529
C         33.33175        18.81748        -0.26390
C         32.38743        17.80672         0.15582
C         33.21177        20.17040         0.05868
C         31.95036        20.87550         0.38119
C         33.11983        23.01377        -0.10039
C         31.86974        22.26606         0.19538
C         33.13437        24.51278        -0.04972
C         31.84215        25.27255         0.06395
C         33.07617        27.34733         0.72186
C         31.89786        26.70327         0.46153
C         33.10650        28.78799         1.10923
C         31.80371        29.52774         1.16367
C         33.08092        31.74921         0.97363
C         31.78520        31.02377         1.20381
C         33.02645        33.19674         0.56952
C         31.71654        33.89064         0.46764
C         32.95269        35.97715        -0.10429
C         31.68757        35.27049         0.14451
C         32.93290        37.46198        -0.32284
C         31.65683        38.20193        -0.21594
C         32.88766        40.31224        -0.48162
C         31.69399        39.59139        -0.11625
C         32.73658        41.65652        -0.71350
C         31.64832        42.43701        -0.23294
C         33.05934        44.52707         0.04961
C         31.80059        43.83469        -0.09675
C         33.03334        45.93097         0.17598
C         31.84328        46.71303         0.14421
C         31.85570        48.10243         0.12150
C         34.42314        20.95520        -0.04559
C         35.64794        23.10722        -0.03666
C         34.43290        22.32857         0.01767
C         35.67583        24.48402         0.12704
C         34.38872        25.15721         0.44815
C         35.65305        27.36248         0.78598
C         34.35992        26.60198         0.81472
C         35.62992        28.86579         0.67759
C         34.32570        29.58263         0.76939
C         35.34093        31.60538        -0.22500
C         34.26448        30.92844         0.58727
C         35.41769        33.10328        -0.06418
C         34.22087        33.83817        -0.04325
C         35.35288        35.85177        -0.98989
C         34.15924        35.18625        -0.42733
C         35.37891        37.35407        -1.10282
C         34.11171        38.15221        -0.95006
C         35.49694        40.30694        -0.70682
C         34.15538        39.65139        -0.91865
C         35.66919        41.64340        -0.33919
C         34.63960        42.65554        -0.47170
C         34.34817        43.82603         0.19330
C         36.86717        25.28444         0.09230
C         38.07697        27.44715         0.31280
C         36.88214        26.65407         0.34594
C         38.09798        28.84137         0.23781
C         36.82850        29.57750         0.15577
C         37.76975        31.71215        -0.68344
C         36.67988        30.90985        -0.19088
C         37.90800        33.05965        -0.46087
C         36.70353        33.88104        -0.06088
C         37.91489        35.90072        -0.84909
C         36.65946        35.06128        -1.04673
C         37.87296        37.28962        -0.84039
C         36.66481        38.06921        -0.91722
C         36.65724        39.44235        -0.70075
C         39.38167        29.53988         0.37202
C         40.64567        31.75426        -0.04063
C         39.65998        30.71816        -0.27622
C         40.42853        33.08439        -0.31607
C         39.16910        33.76491        -0.58021
C         39.13286        35.16482        -0.68469
O         26.28102        55.43630         1.64050
O         27.93449        32.68788        -0.69845
O         14.77303        44.74590         1.76922
O         35.20675        36.51643        -2.30416
O         25.68566        14.57948         0.83490
O         21.26878        22.59275         3.07708
O         33.70151        42.31417        -1.47162
O         13.87768        20.62133        -0.98759
O         31.80965        18.18554         1.41078
O          9.21321        34.47713         2.03105
O         30.38489        45.97199         1.80745
O         28.49195        20.50456        -0.53740
O         19.51953        33.82064         2.18116
O         21.76253        43.51512         3.09061
O         25.94834        48.41663        -1.43204
O         22.92704        11.52762        -3.11173
O         23.66150        35.67327         3.05593
O         26.46317        20.43237         2.69247
O         23.96815        42.27978         3.11398
O         33.20902        23.84634        -1.33311
O         25.18095        22.57508         2.91963
O         23.83222        15.01886        -2.24417
O         33.35647        32.78509         1.96104
O         27.21210        51.44506         1.58621
O         18.43848        46.77058         1.94870
O         21.77005        26.92245        -0.30674
O         35.88849        28.18718         1.96801
O         29.82253        27.15027        -0.76824
O         18.01309        41.02300         2.75263
O         29.00630        50.99892        -0.99561
O         31.00392        24.96897        -1.08577
O         21.60044        11.90446         0.16719
O         32.44339        29.00711         2.39431
O         13.56171        32.11325         1.91346
O         29.72590        44.26290        -1.25239
O         12.06479        38.96077        -0.67178
O         33.89352        38.91611        -2.17039
O         20.50774        35.82730        -0.58857
O         33.29497        36.95305         1.02754
O         16.27674        35.89130        -1.03271
O         38.79502        31.02860        -1.34838
O         24.43827         9.05885        -3.55359
O         15.55835        24.49804        -0.74210
O         25.05879        17.90567         2.33635
O         34.30088        25.55637         1.85959
O         25.39696        32.56278        -0.25618
O         26.43209        40.00602         2.99669
O         21.86036        16.84817         1.77313
O         22.81092         7.85632        -0.53963
O         23.56208        53.11997         1.48614
O         21.82625        30.18138         2.77140
O         15.76493        22.57411         2.51570
O         18.01256        23.95965         2.58873
O         16.91934        47.78972        -2.21120
O         13.60930        39.97937         2.36549
O         19.00656        26.72628        -0.77353
O         25.19234        29.33167         2.83791
O         27.80476        15.02513        -2.01100
O         26.55362        12.61437        -3.00599
O         29.51267        47.25205        -1.51782
O         11.97035        34.54829         2.29963
O         30.92836        31.45775         2.32877
O         30.07835        36.59596        -1.21235
O         24.14565        56.69039         0.62160
O         15.13694        31.52723        -1.26029
O         18.94449        44.35944         2.99893
H         19.69584        44.11740         3.58576
O         19.35396        20.40461         3.02282
H         20.04639        20.95122         3.46589
O         28.91984        40.55302         2.73013
H         28.19486        40.70999         3.38050
O         23.09416        50.51846        -1.32699
H         23.79094        49.92508        -1.68241
O         29.32057        33.80739         2.57251
H         29.98337        33.13291         2.84744
O         29.72382        30.92064        -1.09616
H         29.21143        31.62442        -1.56102
O         10.41499        40.62025         2.19152
H          9.73132        41.31643         2.29212
O         27.40235        37.37127        -0.78800
H         28.13686        36.98862        -1.32893
O         34.86281        31.42356        -1.61981
H         35.44120        31.96488        -2.20228
O         24.64515        21.09869        -0.33198
H         23.82151        21.47538        -0.70863
O         31.28119        15.63183         1.74966
H         31.54604        16.50701         2.12003
O         19.67359        18.66896        -1.34172
H         18.93729        18.29539        -1.87300
O         19.72468        31.39666         2.59841
H         20.20075        31.70644         3.39680
O         16.15554        52.86824        -1.60239
H         16.29447        53.01214        -0.64394
O         27.21385        35.18373         3.15393
H         27.43952        36.05648         3.53639
O         14.65527        26.77103        -1.67263
H         15.28883        26.07199        -1.95900
O         18.94563        57.14455        -2.12292
H         19.19984        57.21894        -1.18005
O         18.65433        33.43810        -1.42180
H         17.84328        33.28265        -1.95259
O         21.71830        51.17281         1.99834
H         22.35309        51.84935         2.33026
O         18.72761        44.21360        -0.64850
H         18.11786        44.60747        -1.30876
O         20.37017        31.31672        -0.95955
H         19.91153        32.04422        -1.44874
O         36.72809        34.46189        -2.36144
H         36.41820        35.14927        -2.99682
O         15.75603        28.95051         2.01082
H         15.59764        29.88604         2.26533
O          9.03017        38.30288         2.12339
H          9.61488        39.01325         2.49621
O         36.87882        34.44644         1.26423
H         36.53467        33.81290         1.92799
H          4.98586        31.12449        -0.66566
H          4.96545        33.59458        -0.52685
H          7.45055        26.85604        -0.21972
H          6.21923        28.98351        -0.47080
H          6.16024        35.70162        -0.32069
H          7.36614        37.84435        -0.26402
H          9.86827        22.61160         0.14073
H          8.66953        24.73569         0.00644
H          8.51019        40.10640         0.09717
H          9.91273        42.23432        -0.35610
H         12.34275        18.01571         0.45933
H         10.94570        20.53286         0.65788
H         11.25397        44.19486        -0.89851
H         12.52094        46.26906        -1.20300
H         14.84238        14.07707        -0.76241
H         13.60532        16.12243        -0.32246
H         13.74151        48.38881        -1.46642
H         15.15047        50.52923        -2.04605
H         17.33182         9.84709        -1.45582
H         16.08235        11.97043        -1.13922
H         17.11669        52.05315        -3.22190
H         17.85541        54.58526        -2.94227
H         19.85888         5.58426        -2.19254
H         18.55413         7.72467        -1.88732
H         19.58946        56.24343        -3.85449
H         20.66314        58.51784        -4.03612
H         23.29493         2.30606        -2.83634
H         21.12864         3.48836        -2.55845
H         24.33314        61.53517        -4.66920
H         22.13252        60.36806        -4.75089
H         25.45310         3.52858        -2.68922
H         26.70328         5.63315        -2.22764
H         27.10154        58.84757        -1.85875
H         26.19040        60.62471        -3.28078
H         27.94915         7.85286        -1.96722
H         29.10996         9.88572        -1.51342
H         29.19908        55.19765         0.34863
H         28.04641        57.04842        -0.63737
H         30.37617        11.90975        -0.90567
H         31.62028        13.85079        -0.13907
H         31.79437        50.56182         0.77834
H         30.30881        52.95336         1.40786
H         32.26006        16.28662        -1.34876
H         34.26936        18.49068        -0.74165
H         33.99762        46.46200         0.23633
H         32.82596        48.62347         0.18529
H         35.37680        20.41073        -0.12206
H         36.59452        22.56462        -0.18473
H         36.66261        41.94867         0.02850
H         35.08346        44.26629         0.88389
H         37.81433        24.78637        -0.16646
H         39.03953        26.91372         0.28021
H         38.81746        37.84022        -0.69973
H         37.62743        39.93080        -0.51384
H         40.10768        29.11886         1.08433
H         41.62257        31.46387         0.37732
H         41.28919        33.75910        -0.17143
H         40.07956        35.72724        -0.64124
