         277
 CSIRO Nanostructure Databank - Neutral Graphene Oxide Data Set
C         30.11431        31.76811        -1.49946
C         30.02845        33.02295        -1.28866
C         30.23707        36.19261        -0.83590
C         30.20514        37.31106        -0.29772
C         30.60311        39.85317         1.91506
C         30.74135        40.92410         2.52066
C         32.45166        28.78503        -1.23600
C         31.44612        29.49889        -1.47861
C         32.36293        31.56555        -0.69699
C         31.15078        30.86023        -1.32382
C         32.38784        33.07258        -0.65836
C         31.31686        33.80736        -1.54296
C         32.58718        36.01605        -0.96185
C         31.29914        35.31759        -1.33844
C         32.54897        37.44724        -0.47343
C         31.41390        37.87419         0.49276
C         32.86354        39.90828         1.09091
C         31.42008        39.39608         0.70707
C         33.02953        41.25531         1.79913
C         31.91219        41.76019         2.74719
C         33.07618        43.88937         2.72247
C         32.06918        43.20634         2.93141
C         35.22517        27.22571        -0.50933
C         34.82838        28.55718        -0.04682
C         33.57725        29.27577        -0.40279
C         34.97747        31.47776        -0.45960
C         33.65724        30.78366        -0.61690
C         34.98962        32.98738        -0.32650
C         33.71271        33.76840        -0.35451
C         35.06874        35.88384        -1.06048
C         33.80745        35.30130        -0.38720
C         35.07284        37.39451        -1.09148
C         33.85666        38.15877        -0.55579
C         35.26486        40.14386         0.11729
C         34.05154        39.30697         0.39729
C         35.33910        41.55156         0.68815
C         34.12605        42.18859         1.31560
C         35.55339        44.34758         1.81562
C         34.24189        43.64188         1.86653
C         36.00061        45.56549         2.51232
C         37.65632        27.36945        -0.49167
C         36.34409        26.83470        -0.84674
C         37.45302        28.58428         0.43448
C         36.10993        29.29480         0.41108
C         37.36163        31.59746         0.61362
C         36.09108        30.81790         0.34737
C         37.54078        32.92288        -0.12283
C         36.32071        33.63292        -0.65475
C         37.52045        35.93430        -0.42876
C         36.40734        35.10338        -1.17084
C         37.66306        37.30559        -1.10540
C         36.39417        38.16168        -1.33959
C         37.75225        40.27058        -0.59702
C         36.42103        39.55176        -0.63944
C         37.92732        41.43013         0.36602
C         36.70380        42.14287         0.94282
C         38.16037        44.27079         1.24806
C         36.83316        43.54138         1.48695
C         38.30632        45.70677         1.71089
C         37.09069        46.12604         2.41754
C         40.38817        24.80516        -1.23936
C         39.33477        25.44919        -1.27189
C         40.09043        27.10681         0.33020
C         38.99334        26.75608        -0.70099
C         40.05767        28.62426         0.71581
C         38.72596        29.33442         0.80835
C         39.92732        31.63854         1.06882
C         38.58704        30.83337         1.18914
C         39.96988        33.11821         0.74942
C         38.83861        33.72672        -0.02579
C         40.13630        36.00995        -0.13316
C         38.86755        35.20796        -0.32232
C         40.21027        37.29392        -0.59544
C         38.98403        38.01297        -1.07585
C         40.33509        40.15110        -0.69248
C         39.00511        39.52032        -0.94955
C         40.42470        41.45790        -0.29964
C         39.30389        42.04640         0.51107
C         40.71799        44.22033         0.81035
C         39.44681        43.42517         1.24183
C         40.80915        45.71429         1.11825
C         39.61896        46.41275         1.76475
C         40.72452        48.49418         1.24560
C         39.65603        47.86805         1.51698
C         42.96458        24.72605        -0.51865
C         41.69498        25.35892        -0.87096
C         42.58628        27.17334         0.97742
C         41.51946        26.63602        -0.01799
C         42.66413        28.71242         0.72207
C         41.33929        29.43074         0.61635
C         42.57202        31.72850         0.90856
C         41.27120        30.95115         0.80826
C         42.56852        33.20994         1.22923
C         41.28711        33.91172         0.86406
C         42.70573        36.00658         0.24004
C         41.39558        35.25489         0.19052
C         42.68280        37.46850        -0.14227
C         41.52665        37.88778        -1.04156
C         42.80555        40.11314        -1.44403
C         41.43461        39.40673        -1.41167
C         42.76785        41.62252        -1.40952
C         41.59643        42.27949        -0.71899
C         42.94331        44.47528        -0.54402
C         41.78662        43.61484        -0.05577
C         42.70821        45.94871        -0.73512
C         41.72193        46.56503         0.23088
C         43.00848        48.56302        -0.05040
C         41.84042        48.05977         0.52498
C         43.90350        25.26637         0.06953
C         45.22856        27.25547         1.09461
C         43.98244        26.46892         0.89927
C         45.18178        28.76809         1.36424
C         43.88499        29.49635         1.16774
C         45.18547        31.75844         1.18006
C         43.90502        30.99799         0.93319
C         45.18936        33.24564         1.50598
C         43.88178        33.99943         1.35285
C         45.20738        36.25892         1.04950
C         43.89317        35.47560         1.02218
C         45.22296        37.67801         0.50917
C         43.97406        38.23143        -0.15085
C         45.43355        40.18114        -1.08565
C         44.09701        39.45148        -1.03214
C         45.41931        41.64509        -1.42431
C         44.09266        42.34355        -1.49205
C         45.26093        44.58831        -1.74849
C         44.11949        43.80780        -1.16646
C         45.09632        46.09449        -1.84994
C         43.78292        46.81679        -1.54245
C         43.98766        48.04810        -0.65756
C         47.10561        27.77439        -0.30660
C         46.46688        26.94844         0.36766
C         47.38170        29.16454         0.04608
C         46.55131        29.49169         1.33351
C         47.75242        31.77846         1.36041
C         46.46467        31.02005         1.51805
C         47.77335        33.26193         1.10029
C         46.50539        34.01096         1.45848
C         47.84583        36.24017         1.15380
C         46.51184        35.52909         1.34208
C         47.84653        37.68107         0.71676
C         46.54545        38.38068         0.37210
C         47.86787        40.46945        -0.21825
C         46.67660        39.60158        -0.50059
C         47.79978        41.83953        -0.38604
C         46.67955        42.46165        -1.16373
C         47.68550        44.83878        -0.76231
C         46.61111        43.95043        -1.39891
C         47.52097        46.19179        -1.34369
C         46.40894        46.68408        -1.57394
C         49.88232        29.45896        -0.77521
C         48.64582        29.92280        -0.14239
C         50.32025        31.63017         1.01284
C         48.96762        31.01226         0.88268
C         50.40655        33.11681         1.48226
C         49.12191        33.93571         1.07159
C         50.44146        36.15753         0.82012
C         49.15988        35.44997         1.18903
C         50.38288        37.52383         0.12228
C         49.02907        38.24568        -0.07117
C         50.30888        40.46434         0.13961
C         49.11824        39.77505         0.05202
C         50.26306        41.93997         0.30777
C         48.94262        42.67002         0.03337
C         50.24073        44.72158        -0.15885
C         48.87910        44.18653        -0.17176
C         51.02463        29.90989        -0.68430
C         52.58594        31.87344        -0.10917
C         51.79949        30.70959         0.27472
C         52.70211        32.98572         0.41374
C         51.73096        33.88083         1.02663
C         52.82073        36.18377         0.20702
C         51.75447        35.35154         0.79715
C         52.80229        37.42630         0.28790
C         51.67655        38.30128        -0.07262
C         52.57392        40.66813        -0.66003
C         51.68636        39.78017         0.19625
C         52.56511        41.89962        -0.60931
C         51.82192        42.84023         0.23837
C         51.32772        44.14602        -0.22579
O         39.72763        32.64760         2.09601
O         43.64669        35.01433         2.36459
O         49.86261        30.67288         1.99123
O         49.98762        36.07052         2.20267
O         35.40758        40.34031        -1.33393
O         41.36620        46.25594        -1.16947
O         39.19125        34.21755        -1.34461
O         43.62321        39.40157        -2.40948
O         38.49967        37.36274        -2.29362
O         51.03283        37.67443        -1.19760
O         47.97998        37.36668         2.09550
O         36.26895        31.56727         1.57146
O         52.14316        34.78399         2.07249
O         49.44202        42.37428         1.39521
O         44.82103        41.99758        -2.69800
O         47.22809        31.43785         2.67537
O         40.73769        45.95237         2.55201
O         41.86262        43.50752         1.39622
O         47.18018        43.08576        -2.40726
O         34.74308        36.59919        -2.27015
O         41.84976        37.37153        -2.46536
O         36.58179        28.57451         1.58955
O         42.13419        29.10050        -0.55844
O         34.58450        30.99429        -1.75603
O         41.70208        33.75455         2.24849
O         37.10658        32.75376        -1.50161
O         31.94026        32.31169         0.48707
O         42.37354        35.18181        -0.90872
O         39.38891        28.72058         1.98469
O         45.69727        38.63043         1.51846
O         34.34877        42.28483        -0.10560
O         48.42901        33.57526        -0.16617
O         33.72586        38.93982         1.76434
O         45.08795        45.24595        -3.02421
O         42.94235        38.42788         0.90630
O         33.74853        28.73063         0.90748
O         32.16703        35.91909        -2.34040
O         44.75853        31.43076        -0.17360
O         38.82232        41.02431         1.44555
O         44.34867        29.11729         2.50116
O         45.76299        36.17784         2.38524
O         41.74279        42.30525        -2.17850
O         32.80772        38.39614        -1.53885
O         34.32147        33.34171         0.91187
O         46.38058        39.41389        -1.90928
O         34.57501        44.55157         0.79289
O         38.02711        45.35300         0.30342
O         47.47284        30.20246        -0.94137
O         38.30343        40.35318        -1.93297
O         41.89602        26.67811        -1.41765
O         38.53645        27.78140        -1.58961
O         40.97926        39.32002        -2.75578
O         33.04865        41.05700         3.25773
O         47.84013        44.77708         0.66077
O         44.70696        26.41791         2.14554
O         45.91847        33.56339         2.71065
O         41.89299        31.55313        -0.37295
O         36.92025        42.40089         2.36961
O         44.11347        44.12434         0.27108
O         31.00981        40.07714        -0.44278
H         30.35360        39.53140        -0.92921
O         38.29050        30.82540         2.58980
H         38.82779        30.13544         3.03585
O         39.63174        43.15094         2.63415
H         40.52910        42.77135         2.76134
O         31.73497        33.54275        -2.87223
H         31.45735        34.27371        -3.46503
O         41.03850        36.29638        -2.85261
H         40.14611        36.69721        -3.03763
O         43.16041        47.17624        -2.74546
H         43.83095        47.45279        -3.40268
O         42.11036        26.98909         2.31563
H         42.89656        26.91469         2.90839
O         36.74956        35.02235        -2.54124
H         36.37304        35.80460        -3.00886
O         39.67344        26.34608         1.46717
H         40.28527        26.52696         2.21900
O         50.41687        33.09343         2.89663
H         50.90385        33.88849         3.21992
O         31.53319        37.20340         1.70924
H         31.04385        37.69756         2.40288
O         33.84159        35.77193         0.97482
H         34.12785        35.03003         1.55984
O         52.18114        39.89224         1.52206
H         52.31901        40.84231         1.74798
O         47.30096        28.93203         2.41003
H         47.57907        29.66476         3.01308
O         48.60334        37.95583        -1.42159
H         49.35969        38.11915        -2.03125
O         37.02476        36.14951         0.91090
H         37.75376        36.41514         1.50997
O         36.41557        38.45692        -2.73707
H         35.75190        39.15936        -2.91473
O         52.35221        29.99539         1.29198
H         51.68096        29.40054         1.68859
O         52.34939        42.85253         1.51946
H         51.89835        43.53217         2.06197
