         576
 CSIRO Nanostructure Databank - Neutral Graphene Oxide Data Set
C          6.27013        19.10678        -1.43258
C          6.27103        20.51762        -1.27828
C          5.04225        21.28214        -1.52093
C          6.11072        23.29853        -0.52048
C          4.96379        22.59180        -1.22340
C          5.87322        24.80099        -0.43562
C          8.74529        14.75049        -1.67420
C          8.66813        16.16270        -1.40991
C          7.47854        16.89771        -1.41690
C          8.61015        19.00236        -0.80000
C          7.44829        18.33383        -1.21493
C          8.73851        20.49904        -0.85163
C          7.43346        21.22226        -0.95432
C          8.63374        23.35259        -0.27400
C          7.46421        22.74478        -1.05331
C          8.78699        24.69374        -0.28211
C          6.85830        25.79241        -0.49127
C          8.22937        27.70928         0.36720
C          6.91210        27.03578         0.13621
C          8.37297        29.09803        -0.10829
C         11.28362        10.49906        -1.98698
C         11.20748        11.91909        -1.81453
C         10.01648        12.62652        -1.82522
C         11.19734        14.79165        -1.43690
C          9.95669        14.06350        -1.66736
C         11.13055        16.20808        -1.19166
C          9.91185        16.85253        -1.14855
C         11.05374        18.89941        -0.07735
C          9.82181        18.21401        -0.57499
C         10.98998        20.33268         0.40439
C          9.67676        21.08434         0.22173
C         10.92260        23.29689         0.93685
C          9.64067        22.55960         0.47890
C         10.92892        24.76705         0.79340
C          9.55768        25.40940         0.82626
C         10.83278        27.67217         0.65017
C          9.50458        26.94902         0.72599
C         10.83109        29.14786         0.34502
C          9.56851        29.78991        -0.07359
C         10.80265        31.96706        -0.31598
C          9.65057        31.15737        -0.44744
C         10.55014        33.32154        -0.67037
C         13.75257         6.17819        -1.93375
C         13.75369         7.64014        -1.88906
C         12.58020         8.37133        -2.07950
C         13.66959        10.49143        -1.36852
C         12.48624         9.78956        -1.84622
C         13.66424        11.92485        -1.20028
C         12.51404        12.68111        -1.81577
C         13.61309        14.76143        -0.91992
C         12.41066        14.10327        -1.34043
C         13.66683        16.24123        -0.98128
C         12.39539        17.04235        -1.25567
C         13.48671        19.06691        -0.21294
C         12.35532        18.33581        -0.45447
C         13.44241        20.48458         0.19084
C         12.22063        21.10097         0.55133
C         13.24460        23.34270         0.05266
C         12.27033        22.55576         0.99271
C         13.36508        24.80203         0.41973
C         12.09552        25.51564         0.51812
C         13.24931        27.65559        -0.19332
C         12.07802        26.91759         0.43268
C         13.31120        29.14556         0.12649
C         12.10118        29.87444         0.07593
C         13.28107        31.96126         0.38975
C         12.06727        31.29368         0.07603
C         13.25513        33.31586         1.02608
C         11.23166        34.58533        -0.59055
C         13.19141        36.11176        -0.02553
C         12.57908        34.88868        -0.73164
C         13.42505        37.29142        -0.94151
C         16.10764         5.59399        -1.22253
C         14.71930         5.28281        -1.54945
C         16.10792         7.74855        -1.06358
C         14.88427         8.34913        -1.33236
C         16.04459        10.39518        -0.61595
C         14.79149         9.74421        -1.02962
C         16.03518        11.89589        -0.45427
C         14.76047        12.61393        -0.69022
C         16.07992        14.74650        -0.25176
C         14.75545        14.05022        -0.56277
C         15.96223        16.18879         0.20217
C         14.84156        16.94309        -0.39296
C         15.85513        19.05599         0.32459
C         14.76272        18.39102        -0.12834
C         15.95677        20.51510        -0.00689
C         14.63734        21.21392         0.13867
C         15.86859        23.40313         0.41175
C         14.65300        22.68446        -0.16431
C         15.83984        24.79005         0.42093
C         14.55820        25.47926         0.32976
C         15.87844        27.66254         0.11811
C         14.57587        26.92121        -0.01148
C         15.88701        29.18494        -0.02003
C         14.53090        29.83780         0.22985
C         15.79004        31.98106         0.40857
C         14.49921        31.23603         0.41866
C         15.80092        33.45165         0.69522
C         14.51633        34.14119         1.01014
C         15.80299        36.21697         0.26169
C         14.50850        35.61226         0.59208
C         15.86043        37.38564        -0.50876
C         14.62623        37.86783        -1.13592
C         18.24797         5.82911         0.03782
C         16.99850         5.06643        -0.34067
C         18.17107         7.30581         0.38857
C         16.87524         8.13370         0.17167
C         18.09177        10.26413         0.93948
C         17.08407         9.61768         0.03974
C         18.17570        11.77553         0.81848
C         17.10878        12.50109         0.36113
C         18.12918        14.61771         1.38870
C         16.97996        13.93570         0.66461
C         18.12213        16.12235         1.43429
C         16.96590        16.84627         0.84026
C         18.25968        19.03969         0.84144
C         16.92569        18.34963         1.09502
C         18.27782        20.52938         0.92727
C         17.10855        21.24244         0.65201
C         18.28256        23.34661         1.05022
C         17.09257        22.66958         0.70529
C         18.36216        24.84117         0.85511
C         17.03490        25.56290         0.72535
C         18.03270        27.73241         1.52495
C         17.03121        26.93569         0.71312
C         18.20680        29.16811         1.06416
C         17.04362        29.86420         0.68862
C         18.26338        31.98711         0.83248
C         17.06383        31.26772         0.64151
C         18.25162        33.44490         0.82092
C         17.08451        34.15165         0.88796
C         18.31811        36.30116         0.48132
C         17.03275        35.66972         0.94744
C         18.30274        37.65278        -0.08525
C         17.06563        38.10926        -0.64268
C         20.74660         6.04943        -0.36887
C         19.57192         5.27652        -0.32169
C         20.70388         7.45883        -0.05073
C         19.46841         8.07883         0.48875
C         20.60262        10.40998         0.40309
C         19.43819         9.55161         0.77125
C         20.62933        11.79480         0.92279
C         19.41241        12.47959         1.16514
C         20.67610        14.59174         1.63349
C         19.39974        13.86807         1.44410
C         20.67967        16.11363         1.78035
C         19.39411        16.87609         1.66264
C         20.73454        19.04070         1.46299
C         19.49915        18.29131         1.16342
C         20.70939        20.47516         1.49317
C         19.48535        21.20557         1.26661
C         20.71518        23.33230         1.65300
C         19.49150        22.63597         1.32968
C         20.62186        24.76398         2.05297
C         19.33584        25.49499         1.82157
C         20.66480        27.72102         1.88668
C         19.34128        27.00358         1.86948
C         20.68953        29.09393         1.29589
C         19.42688        29.86956         1.19135
C         20.76550        31.98621         1.03571
C         19.48695        31.27471         1.00266
C         20.79835        33.42170         0.91332
C         19.54061        34.13206         0.47150
C         20.76086        36.38178         0.71483
C         19.49179        35.63032         0.63051
C         20.77608        37.87769         0.36042
C         19.49383        38.32112        -0.29722
C         23.20382         6.24814        -0.82671
C         22.02249         5.47865        -0.68518
C         23.05195         7.68471        -0.71780
C         21.85491         8.22549        -0.18600
C         23.18454        10.33528         0.36744
C         21.85387         9.70263        -0.00154
C         23.12642        11.84540         0.33334
C         21.86973        12.55796         0.72517
C         23.11716        14.65563         1.08265
C         21.94417        13.95839         1.19048
C         23.11285        16.13546         1.13743
C         21.89949        16.86605         1.46461
C         23.19636        18.96436         1.79151
C         21.91490        18.27688         1.52667
C         23.16031        20.46924         1.91444
C         21.90735        21.20121         1.68763
C         23.19982        23.30267         2.07897
C         21.92742        22.62475         1.78484
C         23.17671        24.74520         2.42976
C         21.88649        25.53369         2.36207
C         23.16343        27.70233         2.04923
C         21.96504        26.99725         2.04639
C         23.23082        29.12265         1.71055
C         22.00166        29.81257         1.24668
C         23.22996        31.96618         1.09937
C         21.97641        31.28861         1.17112
C         23.25182        33.39193         0.87537
C         22.00661        34.10641         0.85247
C         23.30184        36.31407         0.46780
C         22.02946        35.60099         0.82100
C         23.21923        37.60837        -0.26076
C         22.02696        38.26956        -0.39996
C         25.76747         6.22803        -0.79242
C         24.48595         5.59981        -0.84182
C         25.95678         7.57940        -1.24455
C         24.08193         8.60479        -1.09877
C         25.58278        10.56242        -0.53172
C         24.31374         9.84259        -0.51511
C         25.65650        11.84405        -0.01943
C         24.45076        12.49965         0.55491
C         25.65878        14.76936         0.47382
C         24.42731        13.95834         0.86065
C         25.66441        16.02860         1.36858
C         24.43806        16.88056         1.12660
C         25.69834        18.91056         1.76068
C         24.47068        18.27179         1.56877
C         25.71312        20.41082         1.76271
C         24.44562        21.19997         1.72700
C         25.71069        23.34107         2.02599
C         24.41825        22.65178         2.05181
C         25.75017        24.80191         2.06370
C         24.48679        25.49646         2.43231
C         25.75658        27.73325         2.21115
C         24.44722        27.00026         2.36188
C         25.71774        29.22203         2.01274
C         24.41794        29.85274         1.65183
C         25.68710        31.88553         0.90097
C         24.43564        31.22921         1.22227
C         25.65916        33.27086         0.44453
C         24.46600        34.03386         0.55891
C         25.66716        36.02794        -0.50709
C         24.54932        35.49171         0.30335
C         25.65251        37.44699        -0.82938
C         24.46502        38.16178        -0.72875
C         28.12312         6.36609        -0.06698
C         26.91902         5.63331        -0.22255
C         28.18209         7.78140        -0.35833
C         26.99581         8.40584        -0.87320
C         28.15963        10.66240        -1.01114
C         26.86591         9.89597        -0.99898
C         28.14662        12.16017        -0.59159
C         26.98004        12.47581         0.37225
C         28.12922        14.66120         0.81906
C         26.94434        13.98318         0.60572
C         28.14199        16.06531         1.19375
C         26.95618        16.79911         1.33208
C         28.20529        18.92291         1.72640
C         26.91915        18.19101         1.63862
C         28.22732        20.40071         1.94232
C         26.93306        21.15540         2.28580
C         28.06655        23.28188         1.23825
C         26.87805        22.61414         1.86828
C         28.16353        24.76715         1.56529
C         26.94383        25.49987         1.91479
C         28.18529        27.63851         1.65185
C         27.01105        26.97023         1.93748
C         28.25937        29.12145         1.50574
C         26.98883        29.92756         1.64713
C         28.19859        31.98357         0.75040
C         26.90414        31.23747         0.99660
C         28.02210        33.00120        -0.37665
C         26.79198        33.85051        -0.13829
C         27.89143        35.52442        -1.51530
C         26.73644        35.14392        -0.73541
C         27.93614        37.69363        -1.81882
C         26.88456        38.20492        -1.11485
C         30.54464         6.39880         0.31989
C         29.32317         5.72326         0.33492
C         30.60657         7.78518        -0.06499
C         29.40500         8.48563        -0.33443
C         30.76758        10.64383        -0.88434
C         29.46799         9.80344        -1.10370
C         30.64625        11.82254         0.11936
C         29.40710        12.68031         0.08815
C         30.64764        14.54104         1.23685
C         29.39730        13.91025         0.69577
C         30.70281        16.02235         1.53032
C         29.38384        16.76894         1.71549
C         30.69347        18.98219         1.24993
C         29.39725        18.20745         1.10721
C         30.66861        20.38811         1.28718
C         29.42708        21.14397         1.49047
C         30.65825        23.27616         1.35000
C         29.36833        22.50425         1.36042
C         30.48967        24.66592         0.72975
C         29.34073        25.41946         1.35854
C         30.61571        27.54072         0.86513
C         29.50687        26.89215         1.67023
C         30.51987        28.91498         0.37119
C         29.36033        29.74402         0.71373
C         30.57203        31.76219        -0.07136
C         29.37708        31.08699         0.41988
C         30.50854        33.16158        -0.44886
C         29.29540        33.79574        -0.60359
C         30.35421        35.76597        -1.86621
C         29.16817        35.07329        -1.26574
C         30.37922        37.25252        -2.09414
C         29.31306        38.12180        -1.94296
C         32.98207         6.30929         0.50113
C         31.77064         5.69344         0.60167
C         33.08174         7.70130         0.13964
C         31.88863         8.42496        -0.17752
C         33.22250        10.47184        -0.31746
C         31.99221         9.81406        -0.45739
C         33.17380        11.91716         0.11506
C         31.88211        12.72107        -0.06129
C         33.19816        14.68892         0.76296
C         31.95089        13.87995         0.92381
C         33.16695        16.05399         0.75596
C         31.96458        16.80205         1.20389
C         33.07205        18.99351         0.62876
C         31.90912        18.28185         1.00927
C         33.05561        20.39717         0.52801
C         31.85683        21.11613         0.89893
C         32.81754        23.18329        -0.13075
C         31.80687        22.49932         0.75619
C         32.98885        24.62928         0.26416
C         31.81213        25.39375         0.80932
C         33.03288        27.48862         0.29194
C         31.80556        26.85184         0.63441
C         33.13476        28.98565         0.38625
C         31.81721        29.63455         0.00527
C         33.02341        31.74226        -0.55935
C         31.79420        31.09575        -0.13101
C         33.01095        33.09730        -0.89916
C         31.78644        33.94525        -0.63345
C         32.95469        35.82291        -1.84214
C         31.67792        35.08443        -1.63923
C         32.87075        37.20519        -2.23268
C         31.67722        37.85972        -2.32358
C         34.32574         8.35114         0.14809
C         35.74483        10.35003         0.18614
C         34.44723         9.74636        -0.04733
C         36.11994        11.64741        -0.19183
C         34.27113        12.81538        -0.34037
C         35.73350        14.68969         0.50471
C         34.40042        14.03666         0.22848
C         35.66818        16.15247         0.16336
C         34.33859        16.78374         0.19991
C         35.54887        19.02437        -0.00168
C         34.28065        18.28871         0.13858
C         35.49348        20.44424        -0.08396
C         34.23887        21.11341         0.09513
C         35.28502        23.19937        -0.66060
C         34.16182        22.49162        -0.18691
C         35.08341        24.63545        -1.14541
C         34.09382        25.37813        -0.29973
C         35.51482        27.44703        -0.09595
C         34.17702        26.74773        -0.07531
C         35.44771        28.86277        -0.60655
C         34.28967        29.59562        -0.38407
C         35.39712        31.59173        -1.27915
C         34.22441        30.97121        -0.74440
C         35.35429        32.97902        -1.58839
C         34.18848        33.72938        -1.40457
C         34.14133        35.14139        -1.74474
C         37.15049        12.52769         0.21138
C         38.13683        14.76116        -0.11597
C         37.01754        13.96119         0.07125
C         38.08288        16.19435        -0.22467
C         36.80471        16.88637        -0.10090
C         37.95437        19.07280        -0.48905
C         36.75590        18.33636        -0.21452
C         37.92455        20.49638        -0.62512
C         36.66051        21.18052        -0.45139
C         37.75267        23.33824        -1.14700
C         36.53851        22.55682        -0.76028
C         37.35998        24.53732        -1.99111
C         36.37927        25.39617        -1.25561
C         37.85687        27.31760        -1.06875
C         36.57034        26.65822        -0.81342
C         37.86196        28.66967        -1.25808
C         36.63236        29.46424        -1.14165
C         36.58447        30.82227        -1.46073
C         39.22086        16.93582        -0.51729
C         40.32562        19.07170        -1.07799
C         39.18040        18.35752        -0.68122
C         40.28363        20.46164        -1.27883
C         39.10394        21.19849        -1.00278
C         40.26309        23.31647        -1.91178
C         39.10491        22.67683        -1.19977
C         40.40791        24.62774        -2.29670
C         39.51808        25.80362        -2.21757
C         38.96160        26.32185        -1.08253
C         41.44028        21.14222        -1.82486
C         41.40693        22.45440        -2.16668
O         19.71403         8.63043         1.86489
O         10.91674        28.67117         1.73714
O          9.90111        22.84200         1.87698
O         18.11201         6.30828         1.44355
O         19.04494        18.44581        -0.24037
O         31.61633        16.39199         2.60004
O         21.43890        29.13955         0.03266
O         37.39906        24.48172        -3.22263
O          8.68314        27.53794         1.78084
O          9.94019        20.40338         1.44500
O         24.29439        36.30279         1.53180
O         31.02268        28.98652        -1.02417
O         22.36494        12.46473        -0.72112
O         30.96838        34.89017        -2.89195
O         23.16661        19.63633         3.11898
O         19.86008        27.57597         3.11044
O         27.68814        36.48204        -2.50518
O         33.98776        17.46943        -1.06286
O         21.39347        36.15603         2.03585
O         24.97154         8.13347        -2.06955
O         31.35642        13.70465         2.23752
O         25.19193        20.91879         0.47760
O         15.77702        32.94649        -0.70789
O         21.02753        10.33722        -1.01947
O         27.37596        10.48893        -2.24950
O          8.05753        25.47377        -1.17290
O         24.54459        26.30348         3.64943
O         27.98698        29.90127         2.73293
O         24.69264        12.96984         1.93497
O         14.47144        35.18643         2.00756
O         28.55596        19.47093         3.04478
O         32.81330        24.86888         1.70757
O         16.93353        14.13238         2.10626
O         38.67556        23.49038        -0.03152
O         25.82695        28.66925         3.35250
O         20.79555        15.25562         2.95221
O         15.46892        27.07804        -1.17512
O         35.26379        12.26523        -1.13597
O         22.42344        25.07427         3.64032
O         16.57166        11.31106        -1.69109
O         14.76530        16.68449        -1.87398
O         19.55480        24.87705         3.09725
O         10.28877        18.05704         0.85861
O         12.32002        33.63546         1.76231
O         12.58217        23.47351        -1.18464
O         23.72694        16.69665        -0.13755
O         18.47663        16.66629         2.77259
O         16.58304         6.75458        -1.90174
O         34.53016        24.55660        -2.49010
H         35.28085        24.46271        -3.12054
O         39.34881        26.45717        -3.40216
H         39.65763        25.89860        -4.14143
O         27.76928        32.23202        -1.58749
H         27.85220        32.83415        -2.35691
O         10.39587        35.63555        -0.34808
H          9.50014        35.31606        -0.12577
O         16.28749        20.52074        -1.44075
H         15.91587        21.36160        -1.82144
O         12.33680        36.54373         1.03475
H         12.22869        35.77967         1.64776
O         17.62808         9.99895         2.30462
H         18.28851         9.37597         2.70503
O         30.93071        23.50841         2.77140
H         31.19504        22.65490         3.17472
O         33.39842        29.30014         1.79647
H         32.76764        28.78791         2.34813
O         25.60535        15.10183        -0.92636
H         24.81047        15.67195        -1.08004
O          8.87253        25.05365         2.04327
H          8.49172        25.89001         2.41079
O         28.51085        32.69573         1.97326
H         28.48878        32.03180         2.70022
O         27.32149        11.86907         1.65476
H         26.61099        12.13642         2.28332
O          6.08108        22.85623         0.86944
H          5.20666        23.07766         1.25161
O         29.98513        26.97357         3.05741
H         29.30919        26.56043         3.63678
O         12.78112        22.63129         2.33682
H         12.06231        22.34950         2.94391
O         16.80530        14.80123        -1.51289
H         16.27056        15.36735        -2.12034
O         31.87225        13.42624        -1.31335
H         31.67785        12.78840        -2.04256
O         30.18265        24.56209        -0.67487
H         29.31577        24.09714        -0.77702
O          9.48422        20.81062        -2.10793
H          9.01027        20.37377        -2.84891
O         35.84292        14.64488         1.97455
H         35.57469        13.74638         2.26557
O         33.39538        11.80004         1.56432
H         32.61083        11.32177         1.92680
O         35.91241        27.54193         1.30626
H         35.28244        28.15899         1.74560
O         32.27813        23.15932        -1.48288
H         32.30020        22.23473        -1.80585
O         32.03219        34.63685         0.63831
H         32.08384        33.95873         1.34464
O         12.92537        27.60802        -1.62152
H         13.17591        26.71926        -1.95645
O         27.99843        12.94010        -1.78599
H         27.41550        12.43694        -2.39951
O          7.58352        23.06903        -2.45160
H          8.45823        22.74234        -2.75604
O         20.84943        38.63198         1.60600
H         21.25160        38.02445         2.27380
O         19.00665        25.04071        -0.45383
H         18.39755        24.70085        -1.14458
O         27.76634        23.24846        -0.22178
H         27.35491        22.38141        -0.43363
O         16.17449        29.48610        -1.41671
H         15.77373        28.75682        -1.94854
O         29.16438        16.86848         3.13761
H         30.05054        16.95429         3.56105
O         26.80602        21.18283         3.72816
H         27.31691        20.41250         4.07642
O         16.96357        36.05504         2.35694
H         16.05014        35.84514         2.67207
O         30.70483        11.21453         1.43856
H         30.61771        11.95131         2.09583
O         29.21380        18.10294        -0.32449
H         28.47799        17.47793        -0.50735
O         15.98247         7.89715         1.30177
H         16.33468         8.43078         2.05305
O         12.44290        17.48310        -2.64456
H         13.39842        17.53725        -2.88825
O         14.88514        22.75112        -1.61124
H         13.97849        23.03022        -1.96679
O         16.58592        18.56803         2.49269
H         17.15172        17.95680         3.02773
O         12.87792        12.79633        -3.24607
H         13.06073        11.88905        -3.57250
O         29.55239         9.31451        -2.47322
H         28.65235         9.43795        -2.87152
O         25.52357        15.58952         2.74728
H         26.41458        15.41273         3.11716
O         19.60973        33.99048        -1.00899
H         19.37957        33.06168        -1.23086
O         23.43170         9.94501         1.74486
H         24.22353        10.42579         2.06739
O         31.08821        11.18265        -2.18166
H         30.72912        10.53148        -2.83992
O         17.32314        27.87661         2.80132
H         18.01010        27.95840         3.50437
H          5.34012        18.60269        -1.73304
H          4.18425        20.75213        -1.96187
H          4.03014        23.14681        -1.40305
H          4.93193        25.07159         0.07419
H          7.81149        14.19489        -1.85151
H          6.53185        16.38993        -1.65559
H          6.04047        27.43356         0.67697
H          7.47391        29.60860        -0.48468
H         10.36150         9.94674        -2.22694
H          9.06515        12.07892        -1.91868
H          8.71863        31.63393        -0.78915
H          9.46992        33.48409        -0.85003
H         12.77241         5.73950        -2.18688
H         11.66844         7.84364        -2.40192
H         13.25288        34.15145        -1.19214
H         12.53233        37.71238        -1.42641
H         14.42239         4.22399        -1.48061
H         14.71033        38.74740        -1.79259
H         16.75392         4.17111         0.24956
H         17.05546        39.05999        -1.19669
H         19.62176         4.22030        -0.62627
H         19.49275        39.28449        -0.82996
H         22.08803         4.38471        -0.79118
H         22.02067        39.24734        -0.90723
H         24.46949         4.51395        -0.64951
H         24.46544        39.22165        -1.02448
H         26.88582         4.58559         0.11194
H         26.96571        39.20435        -0.66210
H         29.30175         4.64981         0.57570
H         29.52910        39.20233        -1.92142
H         33.90757         5.75717         0.72056
H         31.70749         4.63398         0.89014
H         33.80614        37.74985        -2.42971
H         31.67990        38.93019        -2.57979
H         35.22654         7.76416         0.38429
H         36.46911         9.74378         0.75342
H         36.25486        33.46692        -1.99026
H         35.08736        35.65444        -1.97704
H         38.09930        12.12676         0.60510
H         39.11267        14.28000        -0.29019
H         38.79331        29.20009        -1.50439
H         37.48321        31.32318        -1.85106
H         40.18507        16.42180        -0.64877
H         41.26298        18.52931        -1.27085
H         41.33983        24.84050        -2.85501
H         39.08419        25.74544        -0.15123
H         42.34567        20.54803        -2.01564
H         42.29357        22.91732        -2.62556
