         344
 CSIRO Nanostructure Databank - Neutral Graphene Oxide Data Set
C          1.36934         3.60672        -1.69330
C          0.20534         4.32346        -1.86284
C          1.33470         6.41828        -1.30687
C          0.18694         5.72622        -1.68357
C          1.37972         7.88002        -1.22492
C          0.22455         8.69798        -1.62304
C          1.21666        10.57470        -0.34504
C          0.11450         9.97163        -1.20350
C          1.22191        12.08608        -0.30036
C          0.01239        12.77752        -0.18475
C          1.16502        14.91368        -0.04980
C         -0.02565        14.16667        -0.06975
C          1.14463        16.38568        -0.00441
C         -0.05741        17.11957        -0.00032
C          1.14990        19.22657         0.23354
C         -0.05270        18.50463         0.14762
C          1.17448        20.67233         0.45559
C          0.04555        21.37311         0.92533
C          1.20950        23.50152         0.68272
C          0.06901        22.75488         1.05203
C          1.21257        24.96425         0.71192
C          0.06304        25.70373         1.03095
C          1.27114        27.81559         0.87128
C          0.08318        27.09892         1.09672
C          1.31513        29.25169         0.94148
C          3.76740         3.56061        -1.09913
C          2.57039         4.26924        -1.29426
C          3.71878         6.34227        -0.61074
C          2.54680         5.68595        -1.06678
C          3.60993         7.75886        -0.10848
C          2.50571         8.51698        -0.78437
C          3.75222        10.66690        -0.22316
C          2.54721        10.02444        -0.86345
C          3.73355        12.11440        -0.19070
C          2.44669        12.80220        -0.24371
C          3.65189        14.97873        -0.17689
C          2.39309        14.21014        -0.10731
C          3.61123        16.37865         0.31654
C          2.35635        17.11181         0.06958
C          3.64919        19.22372         0.05634
C          2.37556        18.51808         0.14252
C          3.55916        20.67511        -0.39582
C          2.35599        21.39411         0.18173
C          3.54810        23.53184        -0.31070
C          2.36518        22.79423         0.26669
C          3.61785        24.97981         0.08787
C          2.43044        25.67366         0.43857
C          3.67847        27.80380         0.31007
C          2.46223        27.09681         0.55463
C          3.70288        29.25307         0.41064
C          2.47822        29.93712         0.71964
C          6.15742         3.50718        -0.54703
C          4.94764         4.22084        -0.69656
C          6.12153         6.32039         0.00090
C          4.91854         5.63906        -0.43638
C          6.09026         7.76523         0.20125
C          4.93008         8.49686        -0.01199
C          6.06882        10.70201         0.67611
C          4.89027         9.94101         0.09030
C          6.15724        12.12468         0.16849
C          4.95408        12.82130        -0.12012
C          6.24601        15.09561        -0.07824
C          4.97803        14.29605        -0.33857
C          6.22167        16.40174         0.79224
C          4.87548        17.13543         0.62095
C          6.18197        19.25727         0.11298
C          4.84244        18.56561         0.21708
C          6.10392        20.65542        -0.53475
C          4.85122        21.42386        -0.17629
C          6.10548        23.52869        -0.14355
C          4.85510        22.78588        -0.13531
C          6.09021        24.93085        -0.15410
C          4.83397        25.66997        -0.04835
C          6.09927        27.83393        -0.38669
C          4.85407        27.09093         0.02990
C          6.13563        29.28716         0.03304
C          4.90529        29.95114         0.28334
C          8.57581         3.45580        -0.18692
C          7.34833         4.16743        -0.19136
C          8.58430         6.23106         0.45706
C          7.30409         5.57811         0.11865
C          8.59441         7.70822         0.74304
C          7.26742         8.45995         0.88695
C          8.57193        10.59201         0.46615
C          7.36476         9.93532         0.55933
C          8.62309        12.04375         0.34294
C          7.39293        12.79083         0.19999
C          8.66087        14.89597         0.15212
C          7.45267        14.22844         0.12278
C          8.66960        16.32621         0.09838
C          7.31764        16.94434        -0.14417
C          8.64645        19.19014        -0.13898
C          7.36575        18.43157        -0.54004
C          8.62384        20.61105        -0.08911
C          7.38479        21.39101        -0.22561
C          8.63810        23.52476        -0.13155
C          7.34148        22.76430        -0.11545
C          8.51832        24.94845         0.36877
C          7.31225        25.69595        -0.00272
C          8.58605        27.81469         0.05615
C          7.34968        27.08341        -0.01873
C          8.59720        29.25333        -0.06868
C          7.35259        29.95591         0.02918
C         11.05979         3.43493        -0.19003
C          9.82844         4.11605        -0.08179
C         11.05058         6.23769         0.09631
C          9.84287         5.53633         0.10468
C         11.01698         7.71135         0.03277
C          9.81833         8.46305         0.40270
C         11.09274        10.56563         0.38666
C          9.83270         9.85029         0.38832
C         11.08746        11.99569         0.46791
C          9.85871        12.70116         0.33908
C         11.12605        14.88831         0.50632
C          9.94067        14.15373        -0.03867
C         11.10043        16.32026         0.49988
C          9.85842        17.03697         0.20409
C         11.05681        19.19532         0.44064
C          9.85401        18.49342         0.15803
C         11.04409        20.62494         0.49888
C          9.81892        21.30157         0.26259
C         11.08194        23.52996         0.65058
C          9.77242        22.75087         0.49640
C         11.08387        24.96157         0.32757
C          9.83672        25.71371         0.47812
C         11.04442        27.79084        -0.13277
C          9.81386        27.13828         0.15936
C         11.05279        29.22564        -0.28667
C          9.82892        29.92417        -0.18675
C         13.52931         3.43222        -0.12480
C         12.29346         4.12575        -0.09981
C         13.54482         6.26465         0.15681
C         12.29449         5.55849         0.00476
C         13.57689         7.68758         0.28530
C         12.35945         8.46121         0.06313
C         13.55765        10.55610         0.66522
C         12.32168         9.88347         0.39682
C         13.53049        11.99635         0.79326
C         12.31656        12.70404         0.63518
C         13.52677        14.83888         0.96716
C         12.31070        14.15396         0.73000
C         13.48937        16.30098         1.30819
C         12.27530        17.03164         0.76906
C         13.49440        19.15734         0.87037
C         12.29750        18.46786         0.70166
C         13.51208        20.62211         0.87243
C         12.26257        21.36775         0.69712
C         13.53654        23.48431         0.30549
C         12.33330        22.77080         0.56078
C         13.51047        24.87568        -0.08889
C         12.24301        25.60653        -0.09798
C         13.41864        27.71652        -0.79996
C         12.21938        27.02669        -0.32401
C         13.48245        29.18767        -0.69580
C         12.30131        29.89258        -0.47685
C         16.00195         3.42501        -0.01233
C         14.75379         4.11203         0.05845
C         16.00311         6.18738         0.73753
C         14.74199         5.52621         0.25843
C         15.99199         7.68733         0.65142
C         14.79138         8.39831         0.57741
C         16.00950        10.53624         1.23260
C         14.76063         9.83504         0.74936
C         15.99510        12.01773         0.97057
C         14.76646        12.70812         0.91932
C         15.99224        14.85740         0.96121
C         14.75333        14.14539         0.95636
C         15.97814        16.30244         0.92893
C         14.78800        16.99709         1.02571
C         16.01504        19.12573         0.62902
C         14.79722        18.48198         1.25015
C         15.93967        20.49448         0.02454
C         14.81101        21.33495         0.58894
C         15.97668        23.41506        -0.03757
C         14.78976        22.77401         0.23586
C         16.01883        24.92141         0.00823
C         14.70155        25.53392        -0.38921
C         16.01020        27.68258        -0.79166
C         14.73157        26.91973        -0.85695
C         15.95732        29.13857        -0.90417
C         14.74869        29.82894        -0.85632
C         18.44469         3.48004        -0.41458
C         17.22875         4.13045        -0.05565
C         18.42463         6.26864        -0.02092
C         17.25056         5.54429         0.16996
C         18.39470         7.78534        -0.02157
C         17.31246         8.36179         0.91247
C         18.44269        10.57704         0.60633
C         17.28976         9.86828         0.79152
C         18.45961        12.02787         0.76953
C         17.21880        12.72682         0.90535
C         18.46588        14.87622         0.88757
C         17.21945        14.16291         0.91869
C         18.44919        16.31567         0.85105
C         17.24563        16.99784         0.80421
C         18.41555        19.09097         0.11564
C         17.20936        18.43339         0.53139
C         18.45680        20.50697         0.03678
C         17.25896        21.21378         0.04825
C         18.51555        23.37206        -0.49669
C         17.22305        22.65218        -0.25359
C         18.53265        24.88375        -0.29341
C         17.20435        25.50790        -0.78207
C         18.52219        27.74702        -0.63052
C         17.20029        27.01860        -0.70275
C         18.41140        29.15835        -1.16638
C         17.19958        29.81976        -1.14131
C         19.60194         4.21056        -0.62016
C         20.77570         6.41075        -0.80341
C         19.60515         5.61698        -0.46668
C         20.84750         7.73437        -0.53782
C         19.77297         8.41055         0.28856
C         20.94212        10.63444         0.64124
C         19.72573         9.93709         0.08734
C         20.91754        11.96053         0.87936
C         19.68134        12.73385         0.80085
C         20.92629        14.91911         0.74615
C         19.68688        14.16356         0.84274
C         20.96110        16.26785         0.70149
C         19.73631        17.12614         0.84135
C         20.84374        19.02741        -0.52409
C         19.59903        18.22443        -0.24863
C         20.90979        20.36307        -0.44624
C         19.80779        21.21009         0.15388
C         20.93400        23.37328        -0.61136
C         19.80934        22.65770        -0.32235
C         20.88854        24.75949        -1.02098
C         19.74859        25.52532        -0.93391
C         20.74083        27.64054        -1.77050
C         19.70078        26.95550        -1.18259
C         20.71580        29.05779        -1.94893
C         19.59726        29.79689        -1.65472
O         14.42809        21.13747         1.97696
O          8.74100         6.75559         1.86282
O         10.23918        23.15314         1.79865
O          4.27309        14.80984        -1.50937
O         11.65815         8.17497        -1.20449
O          9.03989        25.31431         1.66043
O          6.67277        16.05511        -1.21235
O         13.95298        27.17827        -2.06872
O         17.77570        22.88398        -1.64602
O          4.01535        16.66808         1.72184
O          2.60621        10.39736        -2.27304
H          3.45511        10.07417        -2.63970
O         13.34007        16.35832         2.78548
H         13.76916        17.20112         3.08294
O          5.98895        20.57437        -1.99002
H          6.68247        19.95004        -2.32781
O          1.04497        10.11451         1.01629
H          0.18197        10.43936         1.34521
O          6.56125        16.33024         2.16115
H          5.72304        16.21043         2.66456
O          6.06634        27.85681        -1.86189
H          5.23257        28.30023        -2.12696
O         17.99143         8.14152        -1.36625
H         18.58718         8.85376        -1.70451
O         16.00745        10.37041         2.72337
H         16.53375        11.11126         3.09535
O         19.27639        17.51652        -1.47765
H         19.19157        18.17827        -2.19502
O         16.20778        25.30574         1.41132
H         15.57227        24.78686         1.94861
O         15.55507        20.33429        -1.39817
H         16.36112        20.09017        -1.90052
O         19.74904        10.17291        -1.36013
H         19.65563        11.13898        -1.50431
O         18.81090        27.88060         0.81969
H         18.08403        28.41023         1.21307
O         20.12775         8.20228         1.67194
H         19.99355         7.25481         1.88293
O          3.17929         7.63037         1.29804
H          3.92237         7.22551         1.79433
O         17.63885         8.08056         2.31517
H         17.09201         8.71881         2.83975
O          3.33125        20.66925        -1.84803
H          4.21973        20.50203        -2.26118
O          6.90368         8.40353         2.30867
H          7.40484         7.63516         2.68410
O         14.91431        18.63756         2.72109
H         14.84360        19.61327         2.88934
O         10.15136        14.14507        -1.51098
H          9.32950        13.79567        -1.91841
O         16.05090         5.88561         2.19391
H         16.74480         6.48961         2.56526
O          5.78833        10.85604         2.11042
H          5.98676         9.98301         2.53011
O         19.84976        17.85599         2.09762
H         19.87911        17.20140         2.82651
O          3.32028        23.53872        -1.76434
H          3.22786        22.58868        -2.03547
O          9.01620        23.64478        -1.54565
H          8.21445        23.87855        -2.06068
O         18.69201        25.08632         1.12368
H         18.76949        26.05991         1.28392
O         17.06118        25.21368        -2.18559
H         16.19709        25.56367        -2.48986
O         20.07925        21.26094         1.58886
H         20.04149        20.33819         1.92620
O          7.34132        18.42049        -1.98564
H          6.94058        17.56678        -2.27378
O          6.59001        19.48102         1.48973
H          6.56369        18.62424         1.97122
H          1.38637         2.51902        -1.85276
H         -0.72027         3.80966        -2.15855
H         -0.75543         6.26447        -1.85324
H         -0.57763         8.24284        -2.22231
H         -0.77869        10.56316        -1.45469
H         -0.93636        12.22118        -0.19449
H         -1.00159        14.66579        -0.01055
H         -1.02417        16.60323        -0.06786
H         -1.01367        19.03573         0.18734
H         -0.87051        20.82691         1.18930
H         -0.83338        23.26456         1.41531
H         -0.88588        25.18852         1.23221
H         -0.84028        27.64509         1.33776
H          0.38905        29.79472         1.18095
H          3.79010         2.47349        -1.26615
H          2.49498        31.03493         0.78666
H          6.18046         2.43029        -0.76929
H          4.91451        31.03852         0.45681
H          8.55768         2.37304        -0.37815
H          7.37196        31.04932         0.15960
H         11.06347         2.34203        -0.31314
H          9.83489        31.02215        -0.26118
H         13.53125         2.34020        -0.25893
H         12.32393        30.99280        -0.46235
H         16.00172         2.33795        -0.18273
H         14.76864        30.92866        -0.90496
H         18.44289         2.39163        -0.57146
H         17.16234        30.88343        -1.42440
H         20.52508         3.70318        -0.93645
H         21.60860         5.90233        -1.31353
H         21.74813         8.30643        -0.80676
H         21.87495        10.06341         0.75272
H         21.83574        12.46744         1.20921
H         21.87268        14.36458         0.66997
H         21.93119        16.78240         0.62850
H         21.70602        18.46815        -0.92195
H         21.85126        20.86508        -0.71889
H         21.92761        22.90572        -0.54440
H         21.83442        25.21181        -1.35510
H         21.62325        27.09252        -2.13111
H         21.59906        29.54860        -2.38112
H         19.56476        30.87295        -1.88124
