         430
 CSIRO Nanostructure Databank - Neutral Graphene Oxide Data Set
C         27.92054        27.39966        -0.36088
C         27.90834        28.81388        -0.37536
C         26.69972        29.54836        -0.56716
C         27.90367        31.66403        -0.34445
C         26.69835        30.92054        -0.54442
C         27.90783        33.10338        -0.30067
C         26.70994        33.85869        -0.38201
C         27.94711        35.95460        -0.24026
C         26.73009        35.23832        -0.32451
C         27.92459        37.46627        -0.15618
C         26.80914        38.12405        -0.93310
C         28.06027        40.23050        -1.01450
C         26.86511        39.43794        -1.24355
C         28.07635        41.64532        -1.18832
C         26.87805        42.39036        -1.44004
C         28.12535        44.48565        -1.48253
C         26.90177        43.75595        -1.57270
C         28.15360        45.89683        -1.61101
C         30.33450        27.37316         0.01253
C         29.10444        26.70293        -0.18183
C         30.33737        28.79408         0.04525
C         29.12899        29.52304        -0.17902
C         30.35276        31.66980         0.01907
C         29.12363        30.95416        -0.18091
C         30.34855        33.07838         0.05889
C         29.14044        33.80737        -0.12353
C         30.43155        35.95808        -0.14584
C         29.14895        35.24801        -0.12357
C         30.44610        37.40502        -0.37744
C         29.25310        38.11735        -0.47492
C         30.50151        40.24180        -0.65933
C         29.26467        39.53396        -0.70813
C         30.52285        41.65651        -0.82488
C         29.31108        42.35956        -1.08317
C         30.57511        44.49844        -1.18532
C         29.34431        43.78250        -1.25047
C         30.58468        45.92115        -1.32991
C         29.34370        46.59082        -1.52635
C         32.84423        24.53807        -0.02438
C         31.65004        25.23201        -0.10818
C         32.80474        27.30510         0.37097
C         31.59587        26.62976         0.11133
C         32.77575        28.76221         0.78070
C         31.55060        29.52367         0.29939
C         32.81258        31.66471         0.52841
C         31.56174        30.90697         0.24283
C         32.86026        33.08278         0.00084
C         31.60009        33.83580         0.45447
C         32.92387        35.89614        -0.42945
C         31.60796        35.26821        -0.01870
C         32.93950        37.39621        -0.26567
C         31.70713        38.10089        -0.39053
C         32.95012        40.23391        -0.36161
C         31.71904        39.52406        -0.45509
C         32.96608        41.65760        -0.46939
C         31.75805        42.36947        -0.72567
C         33.03428        44.46782        -0.83251
C         31.80116        43.78229        -0.91914
C         33.13011        45.88031        -1.33444
C         31.82725        46.64417        -1.27835
C         33.11984        48.71677        -1.32956
C         31.89876        48.03843        -1.36958
C         35.37369        23.08256         0.18763
C         35.32791        24.47700         0.31692
C         34.06815        25.20177         0.23000
C         35.29890        27.33017         0.60756
C         34.03990        26.61142         0.39371
C         35.30420        28.70887         0.66538
C         34.05784        29.46542         0.30180
C         35.38143        31.64081         0.65891
C         34.08510        30.92001         0.71162
C         35.32791        33.13559         0.92586
C         34.12047        33.84578         0.34287
C         35.37163        35.95577         0.26835
C         34.14310        35.19927         0.13397
C         35.39917        37.36420         0.08027
C         34.15170        38.08485        -0.14999
C         35.39106        40.24000        -0.10055
C         34.17464        39.52215        -0.19899
C         35.40294        41.65236        -0.07980
C         34.18828        42.36744        -0.31516
C         35.45121        44.49678        -0.24512
C         34.22172        43.78294        -0.47463
C         35.42838        45.93651        -0.31440
C         34.31476        46.63398        -0.77961
C         35.56002        48.77981        -0.90898
C         34.33094        48.05871        -0.99631
C         35.76791        50.04328        -1.50987
C         37.81689        23.04534         0.30893
C         36.58270        22.38650         0.18505
C         37.82297        24.47640         0.49873
C         36.56332        25.19121         0.51338
C         37.78908        27.33132         0.65743
C         36.54594        26.59142         0.66711
C         37.79169        28.71679         0.68408
C         36.54247        29.46460         1.06146
C         37.87182        31.65217         0.84684
C         36.54132        30.94546         0.71863
C         37.82487        33.12886         0.52521
C         36.61568        33.83276         0.59149
C         37.83450        35.94340         0.42095
C         36.59962        35.24142         0.42573
C         37.83710        37.36704         0.38682
C         36.61979        38.06449         0.16190
C         37.80850        40.26241         0.52089
C         36.70511        39.52192        -0.20475
C         37.78083        41.63233         0.62093
C         36.61225        42.37944         0.20146
C         37.85091        44.51669         0.51437
C         36.61895        43.79573         0.16265
C         37.87259        45.97197         0.43406
C         36.60437        46.67259         0.17674
C         38.00330        48.80362        -0.25129
C         36.67869        48.18521        -0.18075
C         38.13497        50.09081        -0.82248
C         36.98966        50.68681        -1.44137
C         40.33323        20.36947        -0.57175
C         39.11460        21.03180        -0.33099
C         40.32619        22.97161         0.68004
C         39.05900        22.32321         0.18140
C         40.31946        24.48087         0.58648
C         39.04544        25.18206         0.57801
C         40.26551        27.32648         0.62726
C         39.05376        26.61488         0.59358
C         40.30237        28.73234         0.40319
C         39.00538        29.43017         0.25057
C         40.28309        31.63440        -0.11809
C         38.97415        30.92294         0.09199
C         40.29618        33.16097        -0.16081
C         39.04001        33.81901         0.35076
C         40.30927        35.93959         0.50365
C         39.06399        35.23287         0.41995
C         40.29101        37.35054         0.68879
C         39.06171        38.05123         0.61521
C         40.27413        40.21774         1.24532
C         38.98715        39.48423         0.95093
C         40.25970        41.69161         1.15296
C         38.90808        42.37160         1.31499
C         40.17490        44.57656         1.46927
C         38.95865        43.84058         0.97090
C         40.25804        46.01538         1.03365
C         39.04051        46.70466         0.66004
C         40.34138        48.80661         0.41711
C         39.11898        48.12205         0.31127
C         40.49443        50.12822        -0.08213
C         39.40131        50.77360        -0.73972
C         40.77464        52.76331        -1.06254
C         39.58140        52.09549        -1.23290
C         42.80077        20.39309        -0.72908
C         41.56166        21.02063        -0.38874
C         42.79510        23.03006         0.27851
C         41.59450        22.35928         0.13066
C         42.79473        24.39321         0.93273
C         41.50576        25.15024         0.69302
C         42.79449        27.33915         0.68102
C         41.52253        26.61540         1.04438
C         42.77718        28.73694         0.54263
C         41.51539        29.43368         0.42943
C         42.80411        31.63590         0.35951
C         41.55955        30.87653         0.10768
C         42.78038        33.06456         0.45029
C         41.56426        33.80037         0.37155
C         42.77722        35.91472         0.72911
C         41.54904        35.20439         0.53857
C         42.76182        37.35997         0.85663
C         41.53724        38.06599         0.87273
C         42.73903        40.20698         1.05873
C         41.54896        39.48908         1.05399
C         42.74013        41.65979         1.46190
C         41.44017        42.38962         1.18801
C         42.68311        44.51283         1.26311
C         41.47324        43.83026         1.22325
C         42.71046        45.95762         1.33583
C         41.46440        46.67750         1.15766
C         42.78570        48.82315         1.02507
C         41.44521        48.18516         1.21977
C         42.89524        50.15093         0.64820
C         41.74583        50.81797         0.06040
C         43.11836        52.83918        -0.23883
C         41.87406        52.13855        -0.41203
C         43.98968        21.05183        -0.56722
C         45.26018        23.09326         0.09594
C         44.04061        22.39662        -0.06673
C         45.25662        24.50525         0.44028
C         44.04003        25.19397         0.62906
C         45.25325        27.33929         0.48300
C         44.02466        26.61612         0.62793
C         45.24038        28.76732         0.44714
C         44.01111        29.47124         0.45298
C         45.25489        31.63056         0.46908
C         44.01006        30.91601         0.44077
C         45.26002        33.05063         0.58042
C         44.01772        33.77463         0.63991
C         45.24163        35.94522         0.92570
C         43.98781        35.19225         0.76234
C         45.22697        37.41328         0.73669
C         43.98771        38.09708         0.87787
C         45.21002        40.23735         0.80595
C         43.98701        39.52628         0.90301
C         45.19292        41.72372         0.55565
C         43.95749        42.43302         1.02472
C         45.20382        44.55573         1.18986
C         43.95371        43.80993         1.12018
C         45.19700        45.91343         1.50669
C         43.93740        46.61443         1.50000
C         45.19475        48.83418         1.79412
C         43.91521        48.09393         1.61736
C         45.25636        50.26004         1.40760
C         44.14403        50.87967         0.81112
C         44.19116        52.24530         0.36230
C         47.70346        23.13520        -0.10371
C         46.52260        22.49842        -0.28138
C         47.76618        24.44471         0.63955
C         46.48753        25.22576         0.45598
C         47.74341        27.35913         0.34476
C         46.49371        26.62906         0.44911
C         47.72269        28.77516         0.29150
C         46.48488        29.48712         0.36536
C         47.72664        31.61625         0.25874
C         46.48235        30.90498         0.36186
C         47.70976        33.05857         0.28973
C         46.51498        33.74251         0.52772
C         47.68807        35.96265         0.23452
C         46.55434        35.20553         0.74279
C         47.57706        37.41726        -0.12458
C         46.40656        38.11660         0.51388
C         47.67661        40.24291         0.55251
C         46.42460        39.54206         0.61120
C         47.72245        41.64938         1.10475
C         46.45463        42.44347         0.94525
C         47.71221        44.55884         1.12389
C         46.46167        43.81362         1.11750
C         47.75784        45.92834         1.46599
C         46.48292        46.55868         2.06985
C         47.46888        48.86723         2.49143
C         46.45256        48.08764         2.00374
C         47.47582        50.30238         2.39452
C         46.45120        50.96162         1.76620
C         50.24296        24.58256         0.31594
C         49.02312        25.23562         0.36156
C         50.21027        27.38561         0.07744
C         48.98353        26.65923         0.26731
C         50.17064        28.79489        -0.04081
C         48.95624        29.49984         0.12544
C         50.23902        31.68670         0.27079
C         48.93933        30.92748         0.12840
C         50.14271        33.13600        -0.14429
C         48.92978        33.78121        -0.01542
C         50.09294        36.01819        -0.55114
C         48.81630        35.22577        -0.29300
C         50.09644        37.46971        -0.24803
C         48.89252        38.15094         0.00666
C         50.13015        40.28981         0.22081
C         48.88734        39.55829         0.28260
C         50.12240        41.70157         0.39979
C         48.93667        42.42543         0.67415
C         50.08959        44.57456         0.38547
C         48.92200        43.84058         0.74616
C         50.00281        46.08002         0.31476
C         49.00847        46.61802         1.33245
C         50.65344        48.38855         1.92386
C         49.41626        47.75429         2.06674
C         51.45185        25.29874         0.17888
C         52.76532        27.44465         0.11963
C         51.45883        26.67506         0.04658
C         52.67596        28.84453        -0.41937
C         51.35498        29.51782        -0.62422
C         52.57804        31.69376        -0.62116
C         51.42463        30.98970        -0.33131
C         52.58086        33.14884        -0.62315
C         51.36269        33.85329        -0.45802
C         52.55458        35.99612        -0.71857
C         51.36157        35.27541        -0.54866
C         52.54661        37.44857        -0.65308
C         51.33584        38.15398        -0.30713
C         52.51137        40.29046        -0.46937
C         51.34845        39.59356        -0.15296
C         52.60810        41.73789        -0.27961
C         51.36450        42.47070         0.26360
C         52.44632        44.61251        -0.40097
C         51.28594        43.91847         0.06674
C         52.46695        46.03866        -0.35459
C         51.37993        46.71031         0.34103
C         51.63020        47.86425         1.05511
C         55.07450        27.40635        -0.82715
C         53.97858        26.72473        -0.41839
C         55.08241        28.85002        -0.91141
C         53.83936        29.55341        -0.74487
C         55.00428        31.68896        -1.18644
C         53.80943        30.98546        -0.91621
C         54.98736        33.14881        -1.23700
C         53.77878        33.85699        -0.93824
C         54.95162        36.00615        -1.32734
C         53.77052        35.28842        -0.97112
C         54.90290        37.46175        -1.39885
C         53.72712        38.14035        -0.93694
C         54.73127        40.33312        -1.68000
C         53.83279        39.61837        -0.69016
C         54.46216        41.78524        -2.04389
C         53.58195        42.50112        -1.04347
C         54.63811        44.65934        -1.56020
C         53.55452        43.90449        -0.98593
C         54.62960        46.05339        -1.48663
C         53.56760        46.73689        -0.87720
C         56.23874        29.56965        -1.24217
C         56.20630        30.95684        -1.36391
C         56.13440        33.88774        -1.56382
C         56.11838        35.28248        -1.61261
C         55.91637        38.21810        -1.98721
C         55.76105        39.61937        -2.22528
C         55.70128        42.59450        -2.34563
C         55.74183        43.93248        -2.15640
O         41.01190        31.11131        -1.26960
O         52.47302        42.09629         1.15245
O         49.22572        35.62893        -1.68216
O         33.30163        31.36626         1.88994
O         44.26007        48.58880         2.98457
O         38.63706        30.11370        -1.05474
O         39.42636        39.72727         2.35449
O         36.30760        47.70475         1.15847
O         48.60568        48.29346         3.06887
O         46.05052        35.57673         2.09991
O         40.04960        44.62542         2.93668
H         39.55568        43.81021         3.21063
O         46.47778        46.20150         3.47951
H         45.75312        46.70798         3.90605
O         32.74206        28.75280         2.22901
H         32.77410        29.69565         2.52469
O         51.10957        29.43144        -2.09959
H         51.86882        29.87033        -2.54161
O         42.84036        41.62475         2.93291
H         42.78859        42.55093         3.25424
O         33.41444        45.74637        -2.79472
H         32.65599        45.26381        -3.18859
O         49.42425        46.41017        -1.01037
H         50.06549        46.10372        -1.68669
O         32.99963        35.66126        -1.89645
H         32.27632        36.17749        -2.31360
O         37.07585        39.54046        -1.64017
H         36.98018        40.46551        -1.95258
O         35.19291        33.24187         2.38463
H         34.36539        32.75215         2.62009
O         53.00931        27.59638         1.57517
H         53.81048        28.15346         1.67851
O         34.01821        29.51221        -1.15590
H         34.13492        28.59935        -1.49444
O         38.28738        31.56648         2.24271
H         37.49628        31.72556         2.80244
O         54.52818        39.73661         0.62291
H         54.25167        40.58725         1.03084
O         47.23030        37.43523        -1.56974
H         47.93649        36.90813        -2.02470
O         47.82685        24.09768         2.06945
H         46.98094        23.65699         2.29900
O         45.14524        41.82362        -0.93072
H         45.16513        42.77808        -1.15881
O         31.65374        33.86715         1.91170
H         30.85278        34.33223         2.23308
O         50.50756        31.71002         1.72782
H         49.72810        32.11788         2.16259
O         53.69953        41.71165        -3.30945
H         53.58271        42.63191        -3.62844
O         47.87555        41.45919         2.56775
H         48.77618        41.10233         2.72472
O         27.66391        37.76658         1.26220
H         27.65976        38.74323         1.35445
O         38.62522        42.30029         2.75978
H         38.76922        41.35178         3.01506
O         41.50332        26.62568         2.52804
H         42.11441        25.90167         2.81753
O         40.37806        22.70144         2.14296
H         40.29598        21.73012         2.25869
O         41.13448        48.51356         2.62764
H         41.93766        48.31841         3.16018
O         36.52278        29.47126         2.54878
H         36.49345        28.53566         2.84483
O         40.28847        33.52714        -1.58239
H         40.74895        32.79397        -2.05747
O         32.81210        32.93466        -1.43804
H         32.92342        33.83386        -1.84156
O         42.81368        24.15324         2.39256
H         42.00919        23.60288         2.58425
H         26.97702        26.85260        -0.50047
H         25.76150        28.99695        -0.72536
H         25.74747        31.45038        -0.68927
H         25.74062        33.35051        -0.46859
H         25.77557        35.78058        -0.35081
H         25.88916        37.56270        -1.14858
H         26.00024        39.91025        -1.73123
H         25.91613        41.86469        -1.50921
H         25.96794        44.30893        -1.75077
H         27.21178        46.43852        -1.78038
H         29.07055        25.60532        -0.18541
H         29.32435        47.68355        -1.63305
H         32.82450        23.45078        -0.17540
H         30.73454        24.66962        -0.33424
H         33.11662        49.80906        -1.44727
H         30.98211        48.63637        -1.47097
H         34.44800        22.50459         0.06879
H         34.94227        50.52918        -2.04843
H         36.55144        21.29401         0.07704
H         37.08247        51.67502        -1.91065
H         40.32018        19.35187        -0.98683
H         38.18837        20.51699        -0.62251
H         40.88918        53.79159        -1.43464
H         38.75513        52.60940        -1.74177
H         42.78474        19.36515        -1.11923
H         43.19135        53.87557        -0.59936
H         44.91960        20.53092        -0.82973
H         45.12192        52.81707         0.47698
H         48.63639        22.64284        -0.41410
H         46.52553        21.50664        -0.75435
H         48.35936        50.84641         2.75330
H         46.52180        52.04640         1.61014
H         50.29217        23.49219         0.44151
H         50.88472        49.25049         2.56208
H         52.39330        24.73451         0.21769
H         52.62815        48.32463         1.02985
H         55.98463        26.86496        -1.12776
H         54.02235        25.62802        -0.35770
H         55.47021        46.62259        -1.90953
H         53.58632        47.83501        -0.83944
H         57.18538        29.03125        -1.39473
H         57.14323        31.48206        -1.59066
H         57.07535        33.37416        -1.80137
H         57.04482        35.81011        -1.87727
H         56.80607        37.72355        -2.40087
H         56.48455        40.10082        -2.89942
H         56.55194        42.09320        -2.82949
H         56.63284        44.50487        -2.45763
