         344
 CSIRO Nanostructure Databank - Neutral Graphene Oxide Data Set
C          1.20002         3.51922         0.00917
C         -0.01091         4.19769        -0.10860
C          1.16427         6.33381        -0.38146
C         -0.03500         5.57849        -0.29468
C          1.14561         7.76305        -0.49673
C         -0.06741         8.53735        -0.44279
C          1.15082        10.68069        -0.90113
C         -0.08543         9.89131        -0.57020
C          1.18145        12.11639        -0.37329
C         -0.06110        12.83835        -0.17834
C          1.15768        14.86205         0.62392
C         -0.08751        14.13739         0.19303
C          1.17832        16.35726         0.36731
C          0.00157        17.05791         0.10336
C          1.12440        19.21011         0.19054
C          0.01950        18.46430        -0.10855
C          1.08820        20.69506        -0.06345
C         -0.02924        21.40981         0.66034
C          1.19484        23.52902         0.52773
C          0.01310        22.74889         0.84573
C          1.23133        24.94609         0.65340
C          0.05648        25.69752         0.99854
C          1.32481        27.77752         1.08799
C          0.10191        27.05061         1.21363
C          1.38750        29.17066         1.35488
C          3.65806         3.54394         0.05949
C          2.42370         4.22341        -0.10031
C          3.66307         6.33049        -0.47561
C          2.41601         5.63590        -0.32404
C          3.62582         7.73681        -0.57934
C          2.38655         8.48209        -0.53935
C          3.62105        10.65234        -0.16808
C          2.39278         9.89006        -0.57153
C          3.63326        12.08788        -0.72015
C          2.37812        12.79599        -0.25345
C          3.61387        14.88567         0.27154
C          2.42698        14.18988         0.15000
C          3.65928        16.34231         0.47843
C          2.40506        17.05671         0.48323
C          3.61985        19.26533         0.38526
C          2.35243        18.55057         0.76787
C          3.62518        20.65979         0.17317
C          2.40057        21.39769         0.13931
C          3.62646        23.53073         0.06838
C          2.39858        22.81162         0.22832
C          3.65475        24.94604         0.14734
C          2.46194        25.65505         0.45850
C          3.70785        27.80615         0.53887
C          2.50338        27.08596         0.67509
C          3.77147        29.18593         0.85376
C          2.58051        29.85687         1.25528
C          6.05466         3.36041         0.21792
C          4.90969         4.15498        -0.12809
C          6.12711         6.29421        -0.59445
C          4.92833         5.58391        -0.47644
C          6.18454         7.75409        -0.75817
C          4.85055         8.51331        -0.80654
C          6.11038        10.60200        -0.45487
C          4.90359         9.93445        -0.50078
C          6.10605        12.05248        -0.25650
C          4.91322        12.76029        -0.29346
C          6.19603        14.82602         0.49004
C          4.88145        14.12144         0.24025
C          6.18651        16.31322         0.85166
C          4.87735        17.02779         0.50738
C          6.07193        19.20425        -0.06963
C          4.90817        18.53988         0.70999
C          6.18499        20.70957         0.23751
C          4.85771        21.40716         0.02008
C          6.05179        23.53040        -0.52035
C          4.83321        22.78335        -0.12950
C          6.07609        24.99239        -0.32131
C          4.91148        25.65772        -0.05311
C          6.21099        27.70917         0.51889
C          4.91975        27.16964        -0.09669
C          6.22998        29.22288         0.56452
C          5.02039        29.88731         0.77967
C          8.61710         3.30894         0.38200
C          7.37964         3.63323        -0.17883
C          8.60541         6.27648        -0.26025
C          7.42551         5.69651        -0.69526
C          8.56450         7.71120         0.21188
C          7.37721         8.47342        -0.33855
C          8.58415        10.60004        -0.16676
C          7.36275         9.86582        -0.33227
C          8.57183        11.98696        -0.25474
C          7.36300        12.74583        -0.17456
C          8.58200        14.89929        -0.30729
C          7.41385        14.16533        -0.02564
C          8.63879        16.31801        -0.11319
C          7.46583        17.05431         0.42237
C          8.59848        19.21369        -0.45097
C          7.42087        18.53633         0.13693
C          8.52820        20.63171        -0.68321
C          7.35698        21.33536        -0.49712
C          8.61413        23.53776        -0.69661
C          7.32931        22.79254        -0.75980
C          8.61841        24.93728        -0.56784
C          7.33623        25.73260        -0.73583
C          8.63697        27.76891        -0.05992
C          7.43721        27.10686        -0.11755
C          8.68365        29.20033         0.26161
C          7.46583        29.88961         0.51253
C         11.04720         3.43607         0.35041
C          9.81572         4.07432         0.11689
C         11.05151         6.23224        -0.09127
C          9.82146         5.51195        -0.13648
C         11.04385         7.70525        -0.14529
C          9.87112         8.41666        -0.05000
C         11.11279        10.60689        -0.35319
C          9.88277         9.90757         0.18803
C         11.09038        11.94152        -0.63453
C          9.80298        12.67274        -0.67947
C         11.04794        14.89264        -1.05764
C          9.75052        14.16554        -0.86406
C         11.02312        16.37099        -0.86921
C          9.77692        17.05588        -0.46772
C         11.05961        19.16245        -0.76744
C          9.80270        18.49111        -0.55083
C         11.07718        20.60558        -1.04112
C          9.76851        21.36330        -1.06032
C         11.06659        23.48617        -0.68319
C          9.82063        22.81889        -0.80146
C         11.06211        24.88602        -0.48424
C          9.85750        25.61681        -0.46590
C         11.08467        27.76637        -0.32097
C          9.88768        27.07144        -0.31064
C         11.11738        29.21848        -0.17462
C          9.89902        29.88244         0.18593
C         13.51577         3.44556         0.47700
C         12.28435         4.11827         0.28889
C         13.53152         6.23418         0.05546
C         12.27907         5.53787         0.05603
C         13.54183         7.65983        -0.35202
C         12.30113         8.42984        -0.28486
C         13.59740        10.52678        -0.47168
C         12.34669         9.82266        -0.41499
C         13.61150        11.99135        -0.68858
C         12.32408        12.67736        -1.12067
C         13.45007        14.88238        -0.50013
C         12.31677        14.17039        -0.79615
C         13.47724        16.33833        -0.52042
C         12.29618        17.06210        -0.62598
C         13.54939        19.18510        -0.69567
C         12.28659        18.48815        -0.66733
C         13.56009        20.60979        -0.72912
C         12.33622        21.34353        -0.80831
C         13.57321        23.44165        -0.59049
C         12.31878        22.73871        -0.69572
C         13.58487        24.85408        -0.53115
C         12.34072        25.58788        -0.11296
C         13.51708        27.73984        -0.63943
C         12.35230        27.06315        -0.44009
C         13.53345        29.23185        -0.90833
C         12.29507        29.90855        -0.39437
C         15.97905         3.49354         0.73228
C         14.73552         4.15172         0.54271
C         15.93645         6.36230         0.77636
C         14.71471         5.58187         0.36294
C         16.05745         7.75172         0.22130
C         14.86508         8.42793        -0.29218
C         16.00690        10.60188         0.15462
C         14.81418         9.89124        -0.22777
C         15.89259        12.05244         0.57911
C         14.77198        12.76232        -0.15243
C         15.96408        14.92725        -0.14739
C         14.65150        14.23546         0.14777
C         15.95869        16.28774        -0.48272
C         14.74414        17.02856        -0.53591
C         16.03760        19.15020        -0.72331
C         14.76286        18.44996        -0.65542
C         16.03679        20.59534        -0.70178
C         14.81421        21.30289        -0.68432
C         16.04066        23.44112        -0.52051
C         14.80551        22.73205        -0.63726
C         16.01425        24.85804        -0.43959
C         14.80350        25.55357        -0.54995
C         16.03287        27.74007        -0.35208
C         14.81619        27.02383        -0.88851
C         15.96057        29.19193        -0.10272
C         14.76927        29.88500        -0.35576
C         18.46770         3.50579         0.87800
C         17.21506         4.19649         0.77035
C         18.44405         6.33995         0.79690
C         17.23121         5.61060         0.71519
C         18.45178         7.77724         0.76317
C         17.21300         8.47681         0.45133
C         18.34818        10.67031         1.02051
C         17.18008         9.92415         0.41653
C         18.38263        12.14087         0.64677
C         17.19263        12.82535         0.42965
C         18.41121        14.98300         0.14994
C         17.17725        14.23045         0.10742
C         18.45899        16.30881        -0.25186
C         17.24696        16.93388        -0.92279
C         18.53229        19.13262        -1.09000
C         17.22760        18.44088        -0.80994
C         18.49659        20.62632        -0.89666
C         17.29567        21.31478        -0.72651
C         18.52982        23.49190        -0.55420
C         17.28582        22.74878        -0.58247
C         18.53123        24.89407        -0.31708
C         17.24026        25.58581         0.03316
C         18.48517        27.86021        -0.11452
C         17.20733        27.06527        -0.23716
C         18.25795        28.97396         0.90931
C         17.07086        29.80605         0.50187
C         19.65224         4.19907         0.95058
C         20.88375         6.36521         1.02359
C         19.67653         5.62669         0.91875
C         20.87703         7.74663         1.00629
C         19.66667         8.48813         0.86896
C         20.81876        10.68792         0.70473
C         19.66651         9.94705         0.82281
C         20.81386        12.11770         0.71967
C         19.63888        12.83935         0.68936
C         20.86338        15.08515         0.65852
C         19.57563        14.34450         0.88237
C         20.87660        16.38156         0.29193
C         19.66911        17.09356        -0.11487
C         20.80817        19.29374         0.01242
C         19.69596        18.46192        -0.37555
C         20.86478        20.62705        -0.22880
C         19.81703        21.34141        -1.05855
C         20.95301        23.56382        -0.73438
C         19.76368        22.82295        -0.75404
C         20.95193        24.92764        -0.44732
C         19.74064        25.61025        -0.20387
C         20.79030        27.67256         0.72920
C         19.71934        27.02726         0.18747
C         20.71423        29.07554         1.10542
C         19.53521        29.73117         1.17023
O         10.39542        20.95836        -2.31627
O          5.55857        14.08398         1.58475
O         11.00346        15.76785        -2.23081
O         14.34790         7.87831        -1.56240
O          6.48337        23.17553        -1.92469
O          7.77244        18.04520         1.46624
O         14.73314        12.43051        -1.56230
O          7.48334         4.45833        -1.32604
O          9.48636        13.28994        -1.99932
O          5.58968         8.17522        -2.03046
O          1.19260        14.73509         2.09221
H          1.29340        13.78187         2.30045
O          4.91671        27.58132        -1.48947
H          4.18556        27.11758        -1.94683
O          6.23260        16.35425         2.31701
H          5.73261        15.55709         2.62562
O         12.28136        12.62040        -2.56662
H         13.18817        12.82864        -2.88581
O         17.37478        16.61115        -2.35468
H         18.13501        17.14578        -2.69149
O          7.20882        25.92017        -2.18526
H          7.00758        25.02655        -2.55545
O         18.08163        10.66000         2.48204
H         18.77732        11.21209         2.90144
O         19.27409        14.49722         2.32105
H         19.17938        15.45764         2.49665
O         14.40436        14.36523         1.57782
H         14.43303        15.31820         1.80350
O          0.76597        20.83074        -1.49705
H          0.74078        21.79089        -1.69736
O         17.15282        25.51973         1.51437
H         17.50168        26.37431         1.87207
O          2.24950        18.67572         2.24124
H          3.15983        18.53276         2.59677
O          6.21779        27.24657         1.90589
H          7.01386        27.61589         2.34286
O         20.24159        21.23210        -2.45749
H         20.09361        20.29057        -2.72183
O         14.99179        27.04888        -2.35041
H         14.69971        27.94821        -2.65152
O          8.38882         7.70343         1.68688
H          9.08236         7.11211         2.05229
O          5.73662        19.04843        -1.46605
H          6.32714        19.62378        -1.99820
O          6.51546        20.90629         1.63809
H          5.99720        20.24013         2.16086
O          3.56656        10.79324         1.29334
H          3.50604         9.89487         1.68099
O          1.15038        10.84791        -2.39198
H          1.13409         9.94559        -2.77931
O         18.82278        18.90974        -2.55506
H         18.09003        19.34086        -3.04865
O         18.72412        28.50503        -1.39325
H         18.72268        27.81521        -2.08870
O          9.96724        10.04761         1.65624
H          9.27978         9.44202         2.02771
O          5.08947        18.73326         2.15346
H          5.70196        18.00658         2.46686
O         17.89344        28.28576         2.16406
H         17.73852        28.96954         2.84945
O         15.69515         6.58825         2.23376
H         16.49784         7.02452         2.59449
O         12.37355        25.51826         1.36396
H         13.23118        25.89324         1.65859
O         13.56178        29.39469        -2.39499
H         12.67476        29.13638        -2.72707
O          3.63460        12.05945        -2.16392
H          2.76290        11.69149        -2.46429
O         15.57726        12.01031         1.99440
H         16.33575        11.56125         2.44302
H          1.21610         2.43352         0.17988
H         -0.95752         3.64360        -0.03919
H         -1.00736         6.08319        -0.36804
H         -1.02110         8.01936        -0.26702
H         -1.05405        10.40879        -0.52780
H         -1.01029        12.33188        -0.40204
H         -1.06042        14.63212         0.32134
H         -0.95217        16.52870        -0.01862
H         -0.88381        18.95446        -0.49964
H         -0.93482        20.84148         0.91863
H         -0.85444        23.25181         1.29587
H         -0.90405        25.17663         1.10791
H         -0.81148        27.59409         1.49643
H          0.47084        29.69573         1.66067
H          3.62967         2.47574         0.32357
H          2.62307        30.93112         1.48633
H          5.86871         2.48184         0.85539
H          5.02240        30.97721         0.93771
H          8.69530         2.47100         1.09117
H          7.49045        30.98529         0.62044
H         11.04994         2.36031         0.58038
H          9.91969        30.96940         0.35754
H         13.51483         2.35383         0.61311
H         12.30977        31.00382        -0.28360
H         15.99127         2.39654         0.81947
H         14.71802        30.95712        -0.11011
H         18.46673         2.40659         0.91185
H         17.01950        30.86757         0.79109
H         20.60447         3.65632         1.04266
H         21.83509         5.82362         1.12890
H         21.83215         8.28075         1.10441
H         21.79353        10.18797         0.61263
H         21.78607        12.62844         0.73775
H         21.81006        14.59760         0.93283
H         21.84110        16.90396         0.21730
H         21.62445        18.83426         0.59027
H         21.72925        21.20110         0.13738
H         21.90798        23.06153        -0.94278
H         21.90440        25.47527        -0.41925
H         21.73884        27.14335         0.90435
H         21.65190        29.59052         1.36246
H         19.48765        30.78304         1.49158
