         252
 CSIRO Nanostructure Databank - Neutral Graphene Oxide Data Set
C         30.47414        31.47088        -0.23967
C         30.63423        32.69670        -0.38619
C         30.80148        35.80285        -1.18367
C         30.77528        37.00036        -1.49723
C         30.94113        40.16759        -1.87471
C         30.82341        41.44886        -2.06917
C         32.74808        28.81519         0.70743
C         31.61482        29.31238         0.62210
C         32.72596        31.49338         0.68095
C         31.33951        30.77467         0.83125
C         32.69867        32.99314         0.84357
C         31.62649        33.66467        -0.07298
C         32.76511        35.87351         0.10708
C         31.65190        34.98945        -0.36964
C         32.91862        37.25563        -0.35361
C         32.02541        37.85746        -1.45217
C         32.83063        40.19074        -0.53313
C         31.81615        39.33399        -1.28918
C         33.02104        41.61646        -0.98116
C         31.89900        42.25069        -1.75513
C         33.31676        44.18404        -2.00036
C         32.21697        43.61194        -2.04151
C         35.42288        27.30453         0.19315
C         35.24816        28.68590         0.51476
C         34.06424        29.32852         0.77567
C         35.29440        31.52506         0.76020
C         33.99895        30.81294         1.13883
C         35.26128        32.98344         0.70338
C         34.05690        33.66072         0.67001
C         35.26975        35.90466         0.53469
C         34.03558        35.13803         0.61929
C         35.20764        37.29615         0.50892
C         34.01111        37.97878         0.11702
C         35.15743        40.27085         0.60859
C         33.95752        39.46673         0.16851
C         35.28624        41.69608         0.12104
C         34.23711        42.25269        -0.79729
C         35.81558        44.29267        -1.22814
C         34.54024        43.56559        -1.48151
C         35.99401        45.74517        -1.30969
C         37.79242        27.26913        -0.04301
C         36.47813        26.70708        -0.07709
C         37.75222        28.69656         0.27426
C         36.53655        29.38342         0.51166
C         37.80345        31.57167         0.77936
C         36.48803        30.82859         0.64727
C         37.71742        33.03839         0.41704
C         36.53332        33.71624         0.56123
C         37.70115        35.90474         0.63606
C         36.53153        35.19277         0.54742
C         37.74872        37.40493         0.50840
C         36.43431        38.06534         0.88558
C         37.71146        40.29702         1.29016
C         36.41462        39.55525         1.03491
C         37.50064        41.86327         1.54142
C         36.63865        42.35751         0.32823
C         37.60307        44.67859         0.70927
C         36.84541        43.73334        -0.23833
C         37.73133        46.18266         0.34373
C         36.65280        46.49990        -0.59230
C         40.26357        24.51176        -0.68722
C         39.21903        25.22940        -0.58221
C         40.31445        27.23441         0.07359
C         38.97384        26.57621        -0.29800
C         40.29552        28.75446        -0.22964
C         39.00026        29.45204         0.19266
C         40.26176        31.56884         0.02340
C         38.98754        30.82178         0.21032
C         40.27967        33.08227         0.08101
C         38.95512        33.84059         0.00238
C         40.25198        35.95827         0.84691
C         38.98654        35.17598         0.71878
C         40.19764        37.44673         1.04224
C         38.96979        38.07556         1.13109
C         40.85814        40.35437         1.79009
C         38.77220        39.46139         1.60319
C         40.83037        41.78238         1.72221
C         38.76198        42.76774         1.61982
C         40.24869        44.71579         0.88292
C         38.91497        44.02319         1.11111
C         40.29558        46.24461         0.93508
C         38.98360        46.95015         0.54906
C         40.36229        48.90003        -0.03497
C         39.31252        48.24908        -0.04394
C         42.87524        24.57051        -0.87808
C         41.56755        25.02801        -0.72538
C         42.84148        27.33292        -0.59643
C         41.54905        26.56211        -0.58283
C         42.89849        28.67727         0.09689
C         41.55816        29.39792         0.37820
C         42.53922        31.64242         0.87957
C         41.48422        30.87304         0.46738
C         42.69847        33.06294         0.67619
C         41.51764        33.79438         0.49786
C         42.73700        35.90383         0.67492
C         41.54227        35.24053         0.60362
C         42.66327        37.39570         0.40881
C         41.58658        38.07398         1.27952
C         42.65617        40.24323         0.10531
C         41.66037        39.57203         1.04517
C         42.81714        41.75412         0.37527
C         41.69051        42.49310         0.94797
C         42.89149        44.65846         0.84322
C         41.55513        43.96214         0.72504
C         42.93089        46.15679         0.84737
C         41.62120        46.94737         0.72914
C         42.97787        48.96844         0.33943
C         41.71539        48.28420        -0.14618
C         43.93818        25.26448        -0.93899
C         45.29862        27.42912        -1.07882
C         44.16355        26.64220        -0.83701
C         45.24211        28.88303        -0.88594
C         44.19066        29.39674        -0.06251
C         45.40974        31.56339         0.20752
C         44.39949        30.63669         0.54802
C         45.23375        32.99672         0.42803
C         44.02844        33.67389         0.62572
C         45.14580        35.97513         0.07107
C         44.06351        35.18561         0.86612
C         45.30106        37.42534         0.62315
C         43.98361        38.15952         0.43892
C         45.17726        40.19442        -0.32448
C         43.97455        39.49308         0.19133
C         45.14106        41.69114        -0.49014
C         43.96419        42.42869         0.05222
C         45.36018        44.63175         0.04154
C         44.12616        43.86358         0.44501
C         45.32561        46.13923         0.10154
C         44.22566        46.84031         0.48956
C         43.98984        48.24752         0.40842
C         47.80386        27.37831        -1.07898
C         46.62581        26.98825        -1.30396
C         48.27847        28.70416        -1.20826
C         46.34083        29.76993        -1.11835
C         47.85739        31.74694        -0.61621
C         46.50892        31.02467        -0.51761
C         47.77592        32.97141         0.34576
C         46.48880        33.74716         0.08674
C         47.74804        35.99456         0.03461
C         46.47842        35.23129        -0.05693
C         47.73294        37.36269        -0.00212
C         46.49419        38.13563         0.00429
C         47.70755        40.20635        -0.69310
C         46.46666        39.46230        -0.33323
C         47.72030        41.71804        -0.90249
C         46.39765        42.45649        -0.85490
C         47.84380        44.60428        -1.07770
C         46.42530        43.94878        -0.80829
C         47.62223        46.06372        -0.77614
C         46.62255        46.59872        -0.29292
C         50.29999        28.87806         0.23083
C         49.16685        29.44534        -0.41582
C         50.23826        31.58644         0.28797
C         49.11354        30.89117        -0.21417
C         50.23816        33.06758         0.31528
C         49.04633        33.78277         0.24635
C         50.26464        36.01506         0.24676
C         49.04565        35.23094        -0.19455
C         50.27623        37.39057         0.06924
C         48.99720        38.12907         0.06939
C         50.25674        40.31085        -0.50145
C         48.98805        39.60221        -0.20685
C         50.21991        41.74470        -0.57529
C         48.97230        42.43505        -0.53799
C         50.22241        44.47431        -0.18544
C         48.83537        43.92444        -0.11809
C         51.32256        29.46488         0.64502
C         52.63747        31.66149         0.78485
C         51.49023        30.87382         0.65246
C         52.51329        32.93186         0.70548
C         51.48403        33.80848         0.49247
C         52.67124        36.08369         0.32770
C         51.48190        35.27065         0.80605
C         52.61499        37.31893         0.16881
C         51.49115        38.17335        -0.04706
C         52.58943        40.41828        -0.47357
C         51.47012        39.55678        -0.34882
C         52.63171        41.67389        -0.57570
C         51.49482        42.49430        -0.56535
C         51.29028        43.89649        -0.44660
O         48.92593        39.12207         1.17999
O         42.27367        28.68655         1.41159
O         47.82709        40.77365        -2.02606
O         39.61404        35.25142         2.02574
O         39.77477        39.84536         2.52347
O         40.78249        44.32438        -0.45910
O         43.02720        45.39439         2.08871
O         41.99816        27.23182        -1.79662
O         33.04266        35.72647         1.53619
O         46.45685        34.34612        -1.25658
O         37.52353        42.58549        -0.80820
O         37.93977        46.95256         1.55308
O         36.23686        38.63903         2.20345
O         45.25181        44.02866         1.37068
O         44.80705        40.80984        -1.62646
O         34.74121        41.37503         1.44303
O         40.45487        32.34929        -1.20573
O         32.75711        39.93428         0.89058
O         47.38542        29.45287        -2.02561
O         39.78772        42.31984         2.46103
O         43.55961        31.01275         1.59808
O         46.01106        43.29456        -2.02771
O         40.94720        46.97531         2.01097
O         35.66646        43.50789        -2.41303
O         44.62343        36.14217        -1.26738
H         45.00516        35.41598        -1.81831
O         40.37868        29.01053        -1.64401
H         39.65808        28.53142        -2.10293
O         51.43303        35.37261         2.23623
H         51.45845        36.32057         2.48603
O         37.85085        37.68333        -0.92708
H         38.59056        37.15693        -1.30043
O         44.35120        35.26696         2.29921
H         43.59942        34.86053         2.78126
O         48.07174        32.22081        -1.95044
H         47.97373        31.45252        -2.55640
O         45.63688        37.45592         2.02290
H         44.98961        36.90262         2.52303
O         40.39514        27.07921         1.49724
H         40.31245        26.12848         1.71958
O         36.78853        42.02588         2.75979
H         37.32972        41.66577         3.49164
O         41.91754        47.86425        -1.47301
H         41.95126        48.64489        -2.06344
O         38.74501        34.20916        -1.38718
H         39.11404        33.47406        -1.93342
O         49.16365        35.12652        -1.65941
H         48.44586        34.51774        -1.96181
O         30.77145        30.97902         2.08392
H         30.95271        31.90689         2.36807
O         38.08982        31.58678         2.22979
H         37.27413        31.87123         2.69651
O         42.13368        40.13488        -1.23770
H         42.87432        40.36634        -1.84752
O         41.94949        37.82147         2.65498
H         41.26050        38.22746         3.22559
O         48.28898        44.01652         1.18793
H         48.93610        43.68139         1.84209
O         48.25603        44.36240        -2.38941
H         47.47063        44.11934        -2.93269
O         32.27485        33.26601         2.23251
H         32.34402        34.25101         2.35492
O         32.74961        37.65964        -2.67866
H         32.19682        37.97943        -3.42262
O         33.96481        30.87945         2.60901
H         33.41505        31.65970         2.85976
O         36.75242        44.68088         1.87904
H         37.01137        45.44171         2.44732
O         42.18028        37.48355        -0.95620
H         42.90113        37.13835        -1.53390
O         47.65839        32.47590         1.69757
H         48.51455        32.07983         1.96610
