         424
 CSIRO Nanostructure Databank - Neutral Graphene Oxide Data Set
C          1.05544         3.70756        -0.32959
C         -0.12996         4.42944        -0.29265
C          1.08782         6.50204         0.14481
C         -0.11803         5.80933        -0.05109
C          1.12514         7.93113         0.43909
C         -0.04839         8.66633         0.65061
C          1.21003        10.70201         1.11805
C          0.00103        10.01778         1.00624
C          1.22059        12.13552         1.63779
C         -0.02965        12.91572         1.37262
C          1.22631        14.95583         0.89098
C          0.00886        14.26083         1.12584
C          1.22583        16.46560         0.90305
C          0.04798        17.10567         0.21407
C          1.27633        19.22161         0.04125
C          0.06524        18.42503        -0.07059
C          1.27465        20.61148        -0.22141
C          0.04224        21.40181        -0.29090
C          1.38200        23.48762        -0.09432
C          0.06187        22.74853        -0.21845
C          1.32271        24.94593        -0.46960
C          0.36124        25.78388         0.10346
C          1.14914        27.72743        -1.27489
C          0.27067        27.13507        -0.19100
C          1.22704        29.22981        -1.19408
C         -0.02458        29.94130        -1.17836
C          1.11372        32.11549        -1.10737
C         -0.09906        31.29181        -1.03951
C          1.11539        33.52068        -0.62830
C         -0.08612        34.26484        -0.65054
C          1.12219        36.29384        -0.09241
C         -0.08231        35.62726        -0.39861
C          1.15265        37.72145         0.02156
C          3.52324         3.64194        -0.14711
C          2.29174         4.36677        -0.14251
C          3.56963         6.44628         0.22163
C          2.31338         5.77521         0.07909
C          3.59945         7.86725         0.40031
C          2.38143         8.60364         0.54627
C          3.69659        10.67260         0.90306
C          2.42943        10.00633         0.85160
C          3.74481        12.10800         1.41389
C          2.46358        12.87102         1.20383
C          3.68702        14.89585         0.31920
C          2.44767        14.22095         0.87875
C          3.71956        16.40532         0.47744
C          2.53020        17.11557         0.48999
C          3.74482        19.24015         0.12560
C          2.51919        18.53775         0.25350
C          3.73063        20.63735        -0.19803
C          2.50366        21.29553        -0.38279
C          3.74831        23.44801        -0.94039
C          2.42978        22.71603        -0.90684
C          3.74311        24.83625        -1.09206
C          2.42249        25.53387        -1.33637
C          3.67244        27.72863        -1.02124
C          2.49193        27.04180        -1.20331
C          3.69425        29.18728        -0.95674
C          2.43285        29.89647        -1.09704
C          3.64500        32.07519        -0.67221
C          2.44013        31.37236        -1.15163
C          3.56904        33.37297        -0.23286
C          2.32355        34.13087        -0.23102
C          3.52736        36.22893         0.39843
C          2.33348        35.54234         0.05989
C          3.56504        37.66164         0.39936
C          2.33271        38.38329         0.20557
C          5.98403         3.43416         0.12017
C          4.73204         4.27516         0.03900
C          6.03592         6.38721         0.25309
C          4.78141         5.70175         0.19507
C          6.04887         7.79161         0.30037
C          4.85162         8.54037         0.42838
C          6.17301        10.63763         0.69542
C          4.89183         9.97209         0.66142
C          6.26123        12.08478         1.14564
C          4.97275        12.85745         0.97101
C          6.22693        14.94808         0.59079
C          4.97152        14.19110         0.68788
C          6.21370        16.39765         0.45995
C          4.97248        17.10071         0.36461
C          6.22325        19.20657         0.06286
C          4.99026        18.52095         0.22003
C          6.26400        20.71905         0.04258
C          4.96248        21.36600        -0.37703
C          6.23048        23.39282        -1.07792
C          4.96040        22.69809        -0.77866
C          6.22322        24.89944        -1.17342
C          4.94384        25.61302        -1.05022
C          6.17899        27.74891        -0.88241
C          4.94491        27.01566        -0.97729
C          6.15853        29.16159        -0.77735
C          4.90114        29.86767        -0.81353
C          6.13562        32.00425        -0.22649
C          4.95829        31.38177        -0.94053
C          6.07803        33.29063         0.23412
C          4.77736        33.99196         0.36322
C          6.03422        36.17874         0.96591
C          4.73962        35.45255         0.73051
C          6.02988        37.71165         0.84662
C          4.76308        38.37055         0.52969
C          8.46223         3.51027        -0.05708
C          7.27660         4.21189         0.04737
C          8.52536         6.30278         0.25233
C          7.28922         5.63865         0.18190
C          8.54652         7.76450         0.63363
C          7.35267         8.50167         0.03288
C          8.63360        10.60080         0.36892
C          7.36043         9.95372         0.44008
C          8.64814        12.05653         0.17427
C          7.38355        12.79236         0.42857
C          8.72177        14.91226         0.64235
C          7.41610        14.25732         0.57474
C          8.71715        16.42757         0.55827
C          7.42804        17.10684         0.34298
C          8.71459        19.19802        -0.11818
C          7.43966        18.50258         0.07079
C          8.73390        20.56419        -0.41802
C          7.43770        21.22601        -0.79850
C          8.69117        23.43296        -0.76689
C          7.50803        22.72738        -0.79340
C          8.69199        24.89175        -0.82424
C          7.47948        25.61547        -0.91875
C          8.67913        27.72386        -0.77247
C          7.44612        27.02890        -0.83842
C          8.70268        29.22910        -0.92527
C          7.38869        29.90350        -0.59038
C          8.61015        31.95678         0.08874
C          7.37966        31.24955        -0.23620
C          8.57778        33.31005         0.45452
C          7.28332        33.95118         0.87656
C          8.48997        36.18008         0.69942
C          7.30251        35.46824         0.74640
C          8.49424        37.64025         0.61977
C          7.30592        38.35317         0.57029
C         10.93632         3.46328        -0.15441
C          9.72836         4.17225        -0.04780
C         10.99901         6.29562         0.08303
C          9.74748         5.60002         0.11498
C         11.02480         7.73905         0.11851
C          9.84385         8.46588         0.29248
C         11.09331        10.58961        -0.01259
C          9.84828         9.88742         0.23444
C         11.11871        12.04621        -0.02693
C          9.93378        12.77727         0.12935
C         11.16902        14.89979         0.18507
C          9.95689        14.18630         0.29031
C         11.17799        16.34728         0.14279
C          9.97568        17.08444         0.18510
C         11.18606        19.17227        -0.22168
C          9.95521        18.48224        -0.04806
C         11.18589        20.58774        -0.38198
C          9.95239        21.29250        -0.49086
C         11.16759        23.43444        -0.56825
C          9.95759        22.72562        -0.62081
C         11.17783        24.88358        -0.64517
C          9.91910        25.60200        -0.75344
C         11.17335        27.80391        -0.89310
C          9.89091        27.01920        -0.76247
C         11.08260        29.14374        -0.18401
C          9.91761        29.85228        -0.26855
C         11.04677        31.96235         0.33702
C          9.86458        31.26609         0.07567
C         11.03444        33.37709         0.44556
C          9.78456        34.05739         0.52718
C         10.97114        36.20237         0.50057
C          9.76284        35.48620         0.61122
C         10.96280        37.66017         0.49105
C          9.74463        38.33009         0.52395
C         13.40194         3.41813        -0.22424
C         12.18599         4.13071        -0.14272
C         13.45056         6.27178        -0.14617
C         12.20680         5.57374        -0.05991
C         13.45861         7.69159        -0.21565
C         12.27011         8.43479        -0.10484
C         13.53178        10.58698        -0.61944
C         12.27186         9.86795        -0.18809
C         13.57968        12.04039        -0.23946
C         12.36925        12.75153        -0.08487
C         13.63282        14.87364        -0.06879
C         12.39171        14.17943         0.01250
C         13.65410        16.31277        -0.07673
C         12.41634        17.03533        -0.04268
C         13.65415        19.15390        -0.27564
C         12.41715        18.45018        -0.17967
C         13.65590        20.57738        -0.37077
C         12.42132        21.29395        -0.43218
C         13.64912        23.40787        -0.40685
C         12.41750        22.71694        -0.47497
C         13.63442        24.87640        -0.10174
C         12.37921        25.58413        -0.54598
C         13.61564        27.68974        -0.44696
C         12.41713        27.01217        -0.57015
C         13.63910        29.10006        -0.01233
C         12.32796        29.76418         0.34259
C         13.56859        31.99463         0.21896
C         12.32946        31.25492         0.68109
C         13.53655        33.40224         0.25456
C         12.26075        34.11529         0.40990
C         13.44871        36.28052        -0.03078
C         12.21144        35.51246         0.38718
C         13.43271        37.74220         0.36601
C         12.19924        38.37952         0.49945
C         15.88062         3.37560        -0.17839
C         14.64959         4.08427        -0.19905
C         15.92499         6.17979        -0.06630
C         14.67840         5.52067        -0.17218
C         15.92086         7.64573         0.08769
C         14.76521         8.37524        -0.54623
C         16.01511        10.53162        -0.17166
C         14.79505         9.85267        -0.27639
C         16.05583        11.98133        -0.21257
C         14.82038        12.71541        -0.20985
C         16.10365        14.83519        -0.20228
C         14.85040        14.14712        -0.15112
C         16.12989        16.27157        -0.18879
C         14.88287        17.00452        -0.14335
C         16.10693        19.15933        -0.24260
C         14.88686        18.44118        -0.21395
C         16.12195        20.56363        -0.34758
C         14.88901        21.28304        -0.39870
C         16.12602        23.43269        -0.40722
C         14.87921        22.71372        -0.40229
C         16.12080        24.86317        -0.51346
C         14.90751        25.57358        -0.48964
C         16.06035        27.73909        -0.66009
C         14.89583        27.00856        -0.52536
C         16.04747        29.23744        -0.83931
C         14.84118        29.90149        -0.22114
C         16.00621        32.07533        -0.09471
C         14.80390        31.31409        -0.02717
C         15.98570        33.46718         0.07449
C         14.74388        34.13242         0.19018
C         15.97379        36.33453         0.02992
C         14.71567        35.60417         0.50165
C         15.91578        37.77448         0.49855
C         14.65786        38.42248         0.54053
C         18.35872         3.32505        -0.06695
C         17.10986         4.04092        -0.08413
C         18.40228         6.17393         0.08383
C         17.13865         5.47417         0.00148
C         18.46821         7.59275         0.13726
C         17.22561         8.37435         0.22103
C         18.49729        10.48720        -0.07445
C         17.25388         9.81938        -0.04575
C         18.52592        11.92263        -0.16069
C         17.29153        12.65990        -0.19921
C         18.56799        14.79538        -0.26931
C         17.32063        14.10265        -0.22642
C         18.58807        16.22890        -0.32173
C         17.35972        16.94960        -0.24175
C         18.57117        19.13693        -0.61903
C         17.39971        18.43501         0.02922
C         18.60189        20.61497        -0.50452
C         17.37314        21.29723        -0.39334
C         18.59747        23.43986        -0.45794
C         17.35877        22.72485        -0.41422
C         18.57005        24.88042        -0.45913
C         17.37323        25.57039        -0.57958
C         18.50520        27.79149        -0.25449
C         17.37218        27.04982        -0.90259
C         18.41544        29.15359         0.04583
C         17.26404        29.90096        -0.25120
C         18.46875        32.04332         0.38238
C         17.32695        31.39834        -0.36778
C         18.44115        33.45616         0.57054
C         17.23403        34.19918         0.30709
C         18.38538        36.29452         0.85551
C         17.21722        35.58350         0.45248
C         18.33379        37.72319         1.00784
C         17.09523        38.42457         0.84658
C         19.55307         3.98903        -0.01274
C         20.84551         6.11626         0.02855
C         19.61014         5.42422         0.04091
C         20.89133         7.49947         0.01558
C         19.70204         8.27602         0.05879
C         20.93027        10.45598         0.00897
C         19.72322         9.73768         0.00991
C         20.95503        11.84568        -0.07770
C         19.77013        12.60703        -0.16425
C         21.00322        14.77649        -0.28858
C         19.79872        14.06371        -0.24479
C         21.02152        16.17305        -0.41046
C         19.84340        16.91338        -0.44249
C         21.08980        19.18151        -0.69901
C         19.85797        18.37407        -0.74593
C         21.05848        20.53855        -0.67572
C         19.83048        21.31292        -0.61268
C         21.05444        23.51397        -0.70223
C         19.82994        22.74021        -0.57082
C         21.08149        24.86173        -0.57527
C         19.85074        25.61015        -0.25913
C         20.98988        27.98724        -0.33495
C         19.81270        27.10063        -0.10996
C         20.89350        29.28474        -0.01091
C         19.64087        29.79406         0.68612
C         20.69766        31.98057         1.32415
C         19.58774        31.30574         0.76548
C         20.71822        33.36032         1.43052
C         19.59449        34.13596         1.05514
C         20.71986        36.32163         1.56588
C         19.58128        35.58373         1.16723
C         20.67677        37.71119         1.66741
C         19.49704        38.41091         1.40550
O         13.03674        29.04992         1.40286
O          7.68106        12.39431        -0.94596
O          4.51659        34.41646         1.76838
O          1.86011        31.94645        -2.37675
O          6.24534        24.06022        -2.39832
O         18.98646        18.65432        -1.92444
O         19.90665        26.25472         1.10891
O          6.00385        37.00395         2.16257
O         16.34583         8.08083         1.40488
O          8.83927        15.74170         1.85565
O          3.57778        14.72267        -1.14089
H          3.69027        13.76878        -1.33907
O          1.92589        22.62158        -2.26547
H          2.61894        22.20176        -2.81585
O         12.39381        31.36568         2.14200
H         12.84668        30.54606         2.45857
O          8.88756        29.47311        -2.37659
H          8.05592        29.21132        -2.82770
O          7.15859        33.70244         2.31606
H          6.25674        34.01641         2.57444
O          2.06140        25.25681        -2.74209
H          2.84550        25.46741        -3.29241
O          3.91547        11.96697         2.87703
H          3.01634        11.74609         3.24335
O         19.70550        29.32269         2.06069
H         19.77779        28.34272         2.04108
O          5.96160         2.39699        -0.87240
H          5.99202         2.82043        -1.75456
O         13.47328        10.57029        -2.11923
H         14.13851        11.21910        -2.43714
O         17.61516        27.12889        -2.38495
H         17.03647        26.45497        -2.80401
O          1.81146        23.41561         1.29972
H          1.17052        23.92253         1.84085
O          6.61611        12.09080         2.55427
H          5.78093        11.92543         3.05668
O         14.95460         8.22862        -1.99573
H         14.29568         8.83410        -2.41837
O          5.21522        31.62935        -2.37232
H          4.37205        31.47481        -2.85218
O         17.64738        18.56875         1.47393
H         16.88100        18.17901         1.94562
O          6.51808        21.15566         1.41043
H          5.80369        20.80186         1.98061
O          7.13981        20.82787        -2.17128
H          7.75028        21.30910        -2.76826
O          1.07556        16.81113         2.33633
H          1.03438        17.79014         2.39173
O         16.03640        29.47159        -2.31085
H         16.66018        28.80016        -2.68769
O         15.99403        36.34966        -1.41878
H         16.84418        36.74338        -1.70361
O         14.70374        35.72189         1.94761
H         13.95507        35.19056         2.29291
O         17.60652        31.64798        -1.79459
H         16.97740        31.07056        -2.30096
O         13.45437        36.21586        -1.47926
H         12.66367        36.69479        -1.80262
O          1.26907        11.98715         3.13023
H          1.11271        12.88172         3.50470
O          0.49380        27.42962        -2.54624
H          0.75397        26.50738        -2.79939
O          7.54314         8.47540        -1.41331
H          6.90160         9.09671        -1.81672
O         11.32132        28.12796        -2.31680
H         10.50735        28.62573        -2.58939
O          8.39458         7.82527         2.08126
H          9.15229         7.35423         2.48635
O         13.58992        24.95622         1.38312
H         14.42392        24.56339         1.71951
H          1.04211         2.62228        -0.50413
H         -1.09012         3.91661        -0.44417
H         -1.07722         6.34341        -0.02037
H         -1.03095         8.18131         0.58167
H         -0.94660        10.53112         1.21532
H         -1.00033        12.44133         1.57302
H         -0.93888        14.81798         1.09718
H         -0.87236        16.52665         0.05242
H         -0.83508        18.89765        -0.48920
H         -0.92386        20.87771        -0.33601
H         -0.87950        23.31914        -0.21545
H         -0.36563        25.34586         0.80859
H         -0.51591        27.74593         0.27459
H         -0.94953        29.34795        -1.19779
H         -1.07521        31.77248        -0.88391
H         -1.02557        33.77555        -0.94064
H         -1.01256        36.20673        -0.48453
H          0.21181        38.27905        -0.09364
H          3.50205         2.55185        -0.29298
H          2.35894        39.48179         0.24107
H          5.96836         2.90431         1.11540
H          4.75843        39.46258         0.39843
H          8.43218         2.41452        -0.14939
H          7.32011        39.42622         0.32800
H         10.91352         2.36761        -0.25167
H          9.73306        39.43025         0.50472
H         13.37844         2.31931        -0.27542
H         12.16664        39.46855         0.66188
H         15.86427         2.27594        -0.21856
H         14.62763        39.48907         0.81895
H         18.33688         2.22640        -0.11563
H         17.06883        39.49666         1.09956
H         20.49903         3.42765        -0.02099
H         21.78132         5.53926         0.00053
H         21.87101         7.99378        -0.02970
H         21.88871         9.92481         0.08130
H         21.93259        12.34561        -0.07088
H         21.96521        14.24795        -0.26577
H         21.99354        16.67728        -0.49961
H         22.06307        18.67081        -0.66120
H         22.01708        21.07522        -0.64960
H         21.99515        22.98562        -0.90996
H         22.03449        25.40603        -0.64363
H         21.90866        27.57196        -0.77615
H         21.74013        29.96929        -0.17170
H         21.56450        31.39631         1.66348
H         21.61426        33.84765         1.83836
H         21.66078        35.80410         1.79650
H         21.57806        38.26023         1.97413
H         19.46647        39.50399         1.52011
