         420
 CSIRO Nanostructure Databank - Neutral Graphene Oxide Data Set
C         27.85352        27.38233        -0.08996
C         27.82139        28.79576        -0.16819
C         26.59747        29.52080        -0.29209
C         27.80292        31.65190        -0.33525
C         26.59166        30.89222        -0.37505
C         27.80619        33.08780        -0.44597
C         26.60284        33.84503        -0.54994
C         27.83604        35.95865        -0.64927
C         26.61870        35.21834        -0.64622
C         27.84926        37.39810        -0.71418
C         26.66021        38.11927        -1.12589
C         27.75554        40.30519        -0.87483
C         26.63713        39.46274        -1.31693
C         27.89503        41.70527        -1.37696
C         26.77876        42.57201        -1.53679
C         27.95686        44.74839        -1.10526
C         26.79867        43.96136        -1.43079
C         27.91044        45.97572        -0.38166
C         30.29547        27.38070         0.04600
C         29.05752        26.69928         0.00457
C         30.28148        28.80760         0.01514
C         29.04625        29.51833        -0.11802
C         30.27065        31.66394        -0.14991
C         29.03420        30.94589        -0.19168
C         30.25109        33.06566        -0.29934
C         29.04556        33.79518        -0.45410
C         30.28490        35.97362        -0.56483
C         29.06642        35.24242        -0.56016
C         30.30431        37.38930        -0.50208
C         29.05660        38.10143        -0.53022
C         30.32867        40.32437        -0.42713
C         29.02408        39.57652        -0.43101
C         30.38468        41.68147        -0.99681
C         29.21123        42.18465        -1.57223
C         30.42527        44.69628        -0.74712
C         29.24782        44.26277        -1.39307
C         30.35728        45.96388        -0.10021
C         29.08058        46.58413         0.03994
C         32.78536        24.53689        -0.00998
C         31.61379        25.23073        -0.08967
C         32.77578        27.35024         0.20528
C         31.57363        26.66493         0.06878
C         32.76121        28.82346         0.51925
C         31.49841        29.54172         0.10959
C         32.76533        31.65408         0.15750
C         31.51574        30.93844         0.01154
C         32.72938        33.11872         0.19514
C         31.53754        33.77199        -0.41422
C         32.83565        35.98635        -0.38230
C         31.56831        35.25517        -0.59861
C         32.80852        37.40041        -0.51163
C         31.56878        38.07762        -0.50712
C         32.81784        40.23922        -1.04989
C         31.61147        39.54855        -0.44609
C         32.82795        41.72693        -0.77055
C         31.61171        42.45113        -0.89295
C         32.83226        44.52364        -0.32052
C         31.62497        43.88572        -0.72059
C         32.82391        45.89708         0.11770
C         31.59292        46.58808         0.30984
C         32.81870        48.54009         1.11095
C         31.62438        47.90359         0.83763
C         35.31830        23.06036         0.32844
C         35.23772        24.48807         0.37124
C         34.04726        25.19564         0.19918
C         35.25951        27.34900         0.15589
C         34.05291        26.65940         0.20940
C         35.28027        28.80810        -0.06673
C         33.98872        29.54751         0.02023
C         35.24854        31.70844         0.32239
C         34.00026        31.01301         0.22768
C         35.28910        33.13171         0.29667
C         34.02251        33.88454         0.24726
C         35.28478        35.99001        -0.17983
C         34.04008        35.30348        -0.16383
C         35.29785        37.40369        -0.36549
C         34.06711        38.12290        -0.51872
C         35.30850        40.23149        -0.59060
C         34.09007        39.52012        -0.67321
C         35.30373        41.66351        -0.55087
C         34.05777        42.39219        -0.57033
C         35.29819        44.47649        -0.09332
C         34.06205        43.79797        -0.32726
C         35.29914        45.85780         0.25032
C         34.05726        46.55361         0.42213
C         35.32189        48.57590         1.12453
C         34.06334        47.89798         0.89119
C         35.37404        49.91289         1.58487
C         37.78097        23.10837         0.46920
C         36.51535        22.40305         0.37690
C         37.77062        24.48204         0.59846
C         36.48789        25.26398         0.73671
C         37.82837        27.36512         0.23717
C         36.55406        26.57700        -0.04207
C         37.80439        28.82990         0.06406
C         36.52213        29.57592         0.14872
C         37.70516        31.68189         0.76987
C         36.48431        30.94389         0.35626
C         37.73389        33.19795         0.69532
C         36.49132        33.87392         0.28033
C         37.75826        35.98137         0.02599
C         36.51108        35.27784         0.04447
C         37.77964        37.38635        -0.20870
C         36.53879        38.09965        -0.36875
C         37.77663        40.22814        -0.44935
C         36.54091        39.51663        -0.46464
C         37.77516        41.64609        -0.43978
C         36.52864        42.35713        -0.41498
C         37.77031        44.45967        -0.08615
C         36.53097        43.76873        -0.20588
C         37.76498        45.84482         0.23898
C         36.53556        46.53342         0.45495
C         37.80134        48.58169         1.03819
C         36.55090        47.90243         0.86823
C         37.81587        49.92772         1.51093
C         36.58090        50.56118         1.78098
C         40.32421        20.35650        -0.20468
C         39.08062        21.06527        -0.07190
C         40.34995        23.01149         0.79437
C         39.03425        22.36864         0.35166
C         40.31658        24.53596         0.86304
C         39.01080        25.26501         0.79085
C         40.29821        27.43104         0.60802
C         39.01816        26.72495         0.50011
C         40.33606        28.82501         0.58998
C         39.08949        29.56514         0.31795
C         40.31118        31.73253         0.85427
C         39.02315        30.96507         0.81762
C         40.27846        33.21067         0.71442
C         39.02339        33.91055         0.59256
C         40.22193        36.03180         0.25102
C         38.99948        35.28820         0.26967
C         40.25670        37.40057        -0.04972
C         39.01502        38.09525        -0.26863
C         40.23565        40.23080        -0.56189
C         39.01574        39.51672        -0.43185
C         40.24843        41.63771        -0.57422
C         39.01023        42.35447        -0.43391
C         40.23438        44.50018        -0.33735
C         39.00659        43.76784        -0.28877
C         40.20581        45.87387        -0.03914
C         39.00360        46.54542         0.32786
C         40.27856        48.61771         0.83240
C         39.02577        47.91688         0.71790
C         40.28825        49.95968         1.36284
C         39.07938        50.60813         1.70728
C         40.33078        52.57618         2.42819
C         39.13278        51.93186         2.23936
C         42.79102        20.36011        -0.24890
C         41.52116        21.02491        -0.16569
C         42.80220        23.17805         0.25177
C         41.48498        22.53578        -0.11468
C         42.79038        24.58633         0.47794
C         41.56479        25.29446         0.61640
C         42.79376        27.42778         0.65767
C         41.54988        26.70256         0.66004
C         42.80192        28.86527         0.65754
C         41.56834        29.57129         0.65373
C         42.78975        31.70840         0.55721
C         41.58231        31.00096         0.61038
C         42.79684        33.21217         0.35081
C         41.48181        33.88991         0.67193
C         42.75158        36.14531         0.69684
C         41.45413        35.36153         0.68577
C         42.73950        37.49153         0.08197
C         41.52230        38.09546        -0.18683
C         42.75301        40.23380        -0.75553
C         41.48099        39.43866        -0.87311
C         42.69353        41.64044        -0.93154
C         41.48577        42.36412        -0.75222
C         42.67217        44.53924        -0.75246
C         41.48191        43.81267        -0.65840
C         42.66141        46.01079        -0.70714
C         41.39939        46.70214        -0.25119
C         42.75184        48.67333         0.54614
C         41.47378        48.02253         0.39735
C         42.76542        49.99975         1.16130
C         41.54029        50.63051         1.52815
C         42.79892        52.60110         2.28419
C         41.55988        51.94471         2.08347
C         43.96366        21.03738        -0.08348
C         45.24359        23.15414         0.43278
C         44.00114        22.46212         0.19294
C         45.23362        24.54919         0.60397
C         44.02332        25.29692         0.57346
C         45.27385        27.45085         0.70068
C         44.02374        26.72277         0.67675
C         45.27877        28.87416         0.64853
C         44.03349        29.59258         0.63990
C         45.28436        31.75108         0.56943
C         44.02802        31.01498         0.59820
C         45.29162        33.16905         0.58921
C         44.00974        33.86995         1.03212
C         45.30734        36.09976         0.42346
C         44.05383        35.39625         0.83594
C         45.23541        37.48899        -0.10142
C         44.00578        38.15384        -0.23163
C         45.22934        40.20728        -0.87899
C         43.98421        39.53886        -0.64079
C         45.23022        41.59266        -1.49246
C         43.92297        42.37030        -1.31108
C         45.23900        44.56047        -0.99048
C         43.92995        43.87216        -1.14904
C         45.24968        46.04695        -0.81420
C         43.94709        46.77639        -0.59812
C         45.23826        48.85562         0.11321
C         43.93669        48.07213         0.12478
C         45.24331        49.98155         1.12441
C         43.98564        50.66001         1.41170
C         43.98185        51.96425         1.97006
C         47.70034        23.07789         0.57161
C         46.51085        22.45554         0.38192
C         47.77031        24.49749         0.94674
C         46.47716        25.27684         0.90551
C         47.72744        27.42975         0.59640
C         46.50229        26.74465         0.71000
C         47.73244        28.83747         0.58261
C         46.51802        29.57914         0.60619
C         47.72899        31.76140         0.43508
C         46.51229        31.02615         0.52721
C         47.72824        33.15255         0.32295
C         46.50467        33.88799         0.39344
C         47.74234        36.01174        -0.09127
C         46.53984        35.31599         0.22419
C         47.70737        37.43172        -0.38108
C         46.47173        38.14264        -0.41991
C         47.69722        40.21648        -1.29118
C         46.43701        39.52843        -0.80109
C         47.67380        41.71884        -1.04691
C         46.47291        42.38982        -1.11565
C         47.70043        44.62286        -1.14302
C         46.41016        43.84185        -1.01856
C         47.70212        45.85749        -0.24527
C         46.47396        46.68918        -0.26658
C         47.71357        48.58924         0.69134
C         46.47514        47.97345         0.20899
C         47.65936        49.74337         1.41929
C         46.40584        50.37232         1.72459
C         50.24566        24.60046         0.93895
C         49.04096        25.23868         0.77973
C         50.28745        27.39910         0.43095
C         48.98864        26.65123         0.25247
C         50.28718        28.81487         0.34416
C         49.02710        29.55178         0.62547
C         50.24252        31.73604         0.04087
C         49.02598        31.04822         0.53823
C         50.19822        33.09358        -0.16016
C         49.04157        33.89675         0.40773
C         50.20116        36.00266        -0.35888
C         48.98139        35.31814        -0.09918
C         50.19354        37.42766        -0.53841
C         48.95120        38.14012        -0.58506
C         50.18623        40.25488        -0.87237
C         48.96197        39.53195        -0.83393
C         50.19328        41.68219        -0.93712
C         48.94877        42.43483        -0.95830
C         50.24879        44.59185        -1.11441
C         48.96291        43.81555        -0.97430
C         50.27042        45.90645        -0.38057
C         49.00038        46.52542         0.04774
C         50.28727        48.48630         0.85591
C         49.01869        48.03395         0.16935
C         51.47471        25.28248         0.77453
C         52.77617        27.37783         0.47613
C         51.50833        26.66343         0.53630
C         52.76045        28.77514        -0.10751
C         51.46651        29.53516         0.12273
C         52.66865        31.63133        -0.35394
C         51.47169        30.96115        -0.09219
C         52.69331        33.04809        -0.70535
C         51.38172        33.82659        -0.62161
C         52.66548        35.96981        -0.70138
C         51.42790        35.29196        -0.48536
C         52.65972        37.39773        -0.81449
C         51.42539        38.11643        -0.73558
C         52.66965        40.24068        -0.92084
C         51.42916        39.54023        -0.83381
C         52.68285        41.65902        -0.91084
C         51.44273        42.38087        -0.90096
C         52.70510        44.49288        -0.68708
C         51.48147        43.79153        -0.83839
C         52.71974        45.89635        -0.41321
C         51.45470        46.54267        -0.09611
C         51.42876        47.79953         0.65525
C         55.23340        27.51602         0.63249
C         53.98903        26.80305         0.76282
C         55.25598        28.86420         0.39637
C         53.93748        29.60385         0.42076
C         55.25970        31.62488        -0.52738
C         53.95884        30.90763        -0.33664
C         55.22655        33.09307        -0.73828
C         53.95876        33.81891        -0.36463
C         55.11222        35.93553        -1.09268
C         53.90229        35.26246        -0.79118
C         55.10973        37.37967        -1.18875
C         53.89149        38.09645        -1.01495
C         55.13810        40.22766        -1.14988
C         53.90509        39.52487        -1.02558
C         55.16002        41.66396        -1.04872
C         53.92728        42.36518        -0.92294
C         55.17028        44.49685        -0.73586
C         53.93941        43.78308        -0.77930
C         55.15255        45.90272        -0.54513
C         53.95379        46.57602        -0.35590
C         56.47330        29.64567         0.33932
C         56.48206        30.95243        -0.02850
C         56.34087        33.79697        -1.13602
C         56.30821        35.19820        -1.27615
C         56.30907        38.10465        -1.38779
C         56.32714        39.48342        -1.35453
C         56.37728        42.40415        -1.04066
C         56.38766        43.77214        -0.88328
O         49.18597        30.38791         1.84615
O         44.87389        36.02434         1.87251
O         44.64693        46.83261        -1.90798
O         51.97314        33.39792        -1.91137
O         33.17019        33.70392         1.46124
O         29.36507        43.30534        -2.41194
O         28.07835        40.12190         0.54832
O         43.72964        43.23896        -2.48413
O         39.65896        24.98161         2.10653
O         31.12438        40.13533         0.79720
O         48.30700        45.74205         1.08733
O         54.61680        30.86466        -1.63981
O         41.97794        36.00647         1.92722
O         31.73491        34.32119        -1.76207
O         47.07136        24.85233         2.19671
O         41.78237        46.66410        -1.68629
O         34.49372        29.18301        -1.29813
O         37.50861        32.47707         1.97101
O         38.62743        29.37229        -1.06554
O         39.69441        31.18213         2.08460
O         41.15185        23.01420        -1.45386
H         41.82253        22.66055        -2.07462
O         41.37686        39.11729        -2.31797
H         41.42026        39.96619        -2.80869
O         53.93995        33.82927         1.11706
H         54.71203        34.35248         1.42097
O         36.37418        25.64297         2.14127
H         36.50555        24.83865         2.68523
O         45.28611        49.47946        -1.21307
H         45.14426        48.74843        -1.86407
O         45.34400        41.34926        -2.93420
H         45.01621        42.17254        -3.37294
O         49.09881        48.50269        -1.21689
H         48.95574        49.47235        -1.21912
O         47.72388        40.05225        -2.74829
H         46.89097        40.46944        -3.09471
O         52.93128        28.63102        -1.54175
H         52.14186        28.17468        -1.89871
O         49.33800        34.02396         1.84533
H         49.34352        33.11931         2.22817
O         40.62503        22.53254         2.12792
H         40.17448        23.14933         2.74882
O         47.67680        45.13265        -2.50949
H         48.60832        45.36009        -2.76353
O         43.00014        33.45338        -1.08040
H         42.34548        32.92276        -1.58161
O         36.60923        26.24681        -1.45767
H         36.55769        27.08306        -1.96795
O         53.67904        29.94411         1.80519
H         53.61631        29.10982         2.31622
O         43.87689        33.62670         2.44394
H         44.35604        34.34900         2.90975
O         32.83634        28.93485         1.98125
H         32.04169        28.50158         2.35792
O         32.65901        40.07361        -2.49924
H         33.44058        40.47363        -2.93561
O         48.86684        26.47468        -1.22746
H         49.64688        25.95395        -1.51764
O         50.35119        44.95373        -2.57048
H         50.51259        44.11863        -3.06147
H         26.90806        26.82171        -0.11686
H         25.65050        28.96289        -0.32772
H         25.62831        31.40915        -0.47986
H         25.63123        33.33349        -0.53493
H         25.65844        35.74926        -0.69146
H         25.78088        37.53663        -1.43317
H         25.76876        39.93744        -1.79603
H         25.78262        42.10109        -1.55653
H         25.82208        44.46826        -1.38174
H         26.93894        46.44240        -0.16509
H         29.03138        25.60248         0.05204
H         29.00821        47.55294         0.55236
H         32.75727        23.44228        -0.09660
H         30.68069        24.67603        -0.25392
H         32.78764        49.56766         1.49629
H         30.68513        48.44483         1.01312
H         34.39868        22.46780         0.22152
H         34.44724        50.46135         1.79811
H         36.51762        21.30594         0.33999
H         36.55944        51.59729         2.14284
H         40.30233        19.26537        -0.34498
H         38.15849        20.51767        -0.31375
H         40.35339        53.59135         2.84992
H         38.20545        52.44992         2.51615
H         42.80353        19.27118        -0.40812
H         42.80820        53.61983         2.69736
H         44.90451        20.47433        -0.13377
H         44.93219        52.49215         2.12672
H         48.63597        22.52530         0.40300
H         46.51995        21.38964         0.11834
H         48.57432        50.21677         1.80059
H         46.41437        51.20700         2.43936
H         50.27127        23.54158         1.23372
H         50.30987        49.42403         1.42972
H         52.40749        24.71664         0.89103
H         52.36963        48.16340         1.09351
H         56.17305        26.95288         0.73268
H         54.04390        25.75556         1.09296
H         56.10412        46.45278        -0.51929
H         53.96981        47.66003        -0.17602
H         57.41622        29.15298         0.62393
H         57.42195        31.52375        -0.00378
H         57.27840        33.26417        -1.35167
H         57.23513        35.70726        -1.56584
H         57.25705        37.57546        -1.54691
H         57.28552        40.00045        -1.49265
H         57.33652        41.87908        -1.14055
H         57.34191        44.31806        -0.86315
