         651
 CSIRO Nanostructure Databank - Neutral Graphene Oxide Data Set
C          6.13508        31.66291        -0.11007
C          6.39550        32.95956         0.23921
C          8.17678        27.54971        -1.52075
C          8.10820        28.93514        -1.87276
C          6.98846        29.65944        -1.30789
C          7.68645        31.93825        -1.96413
C          6.88287        31.04242        -1.17622
C          8.13126        33.16111        -1.52140
C          7.41292        33.74718        -0.41634
C          8.54635        35.89633        -0.77477
C          7.60506        35.08574        -0.08834
C          8.65733        37.24388        -0.48070
C         10.79597        23.57900        -0.26237
C         10.64191        24.77398        -0.98433
C          9.42778        25.49431        -1.03242
C         10.53207        27.35852        -2.24130
C          9.34827        26.77770        -1.62358
C         10.46523        28.74494        -2.83811
C          9.24043        29.53038        -2.47463
C         10.47141        31.68201        -2.84313
C          9.33670        30.89745        -2.89165
C         10.38803        33.17688        -3.05186
C          9.20200        33.89763        -2.27284
C         10.63921        36.05670        -2.20327
C          9.39848        35.32192        -1.85285
C         10.72880        37.37322        -1.83231
C          9.68263        38.04694        -1.05901
C         10.82923        40.23369        -1.13437
C          9.69213        39.42385        -0.84118
C         10.89990        41.59275        -0.90353
C         13.81400        20.64969         2.46899
C         13.58509        21.70643         1.53036
C         12.29619        22.04404         1.04510
C         13.23070        23.86304        -0.28924
C         12.09225        23.09087         0.10508
C         13.18655        24.79662        -1.42480
C         11.79039        25.31414        -1.74876
C         12.91507        27.31841        -2.96682
C         11.70585        26.66687        -2.31323
C         13.01285        28.77752        -2.48036
C         11.72017        29.53216        -2.42353
C         13.05083        31.73453        -2.74735
C         11.75855        31.03364        -2.49632
C         12.96367        33.17769        -2.94387
C         11.75912        33.85153        -2.81284
C         13.01544        36.09904        -3.24043
C         11.73110        35.34051        -2.93593
C         13.01566        37.58335        -3.02103
C         11.85996        38.20731        -2.29013
C         13.31413        40.24083        -1.70855
C         12.04184        39.49840        -1.56193
C         13.31962        41.69567        -1.48059
C         12.12070        42.34775        -1.07960
C         13.37643        44.44899        -0.88783
C         12.15895        43.72711        -0.81464
C         13.43796        45.79555        -0.42894
C         16.73380        17.78025         5.11671
C         16.58952        18.81272         4.17480
C         15.29517        19.28437         3.85406
C         16.29781        21.07580         2.47569
C         15.09080        20.34864         2.95456
C         16.11969        22.22377         1.52852
C         14.69549        22.53449         1.17398
C         16.18969        24.42547        -0.60495
C         14.39886        23.69106         0.46253
C         15.69129        24.78220        -1.98060
C         14.38712        25.54304        -1.95618
C         15.39910        27.33120        -3.44914
C         14.24693        26.64684        -2.71694
C         15.54394        28.77517        -2.91003
C         14.30195        29.54658        -2.54807
C         15.52247        31.68962        -3.06514
C         14.26335        31.03017        -2.77523
C         15.53330        33.13631        -3.38138
C         14.21792        33.90885        -3.33590
C         15.54575        36.03376        -3.34775
C         14.31819        35.38537        -3.25156
C         15.61501        37.55983        -3.54383
C         14.33609        38.31411        -3.12893
C         15.73205        40.30648        -2.27003
C         14.42523        39.67469        -2.52722
C         15.75799        41.63566        -1.92474
C         14.54083        42.39627        -1.62353
C         15.83591        44.51191        -1.27846
C         14.56110        43.77795        -1.32558
C         15.91806        45.83157        -0.60378
C         14.66488        46.47551        -0.20379
C         16.05870        48.20765         0.94067
C         14.72152        47.66000         0.51995
C         16.01727        49.64589         1.36912
C         19.54862        14.45649         7.52158
C         19.42895        15.57805         6.63249
C         18.14840        16.14691         6.31572
C         19.12425        17.64544         4.60441
C         17.99336        17.18218         5.37399
C         19.03826        18.69420         3.69591
C         17.75520        19.33849         3.46732
C         18.73757        20.93503         1.82747
C         17.61032        20.38977         2.56631
C         18.59280        21.91451         0.86890
C         17.20452        22.33288         0.42796
C         18.24144        23.65536        -1.49963
C         17.22667        23.55948        -0.46091
C         18.03018        24.55304        -2.61627
C         16.84098        25.33405        -2.78316
C         17.83903        27.34550        -3.90381
C         16.74542        26.61330        -3.38458
C         17.75237        28.83377        -4.18176
C         16.77938        29.52320        -3.23475
C         17.96550        31.71653        -3.42165
C         16.73487        31.01189        -3.22588
C         18.03880        33.11575        -3.35609
C         16.81346        33.88913        -3.32994
C         18.08977        36.01880        -3.58348
C         16.79112        35.28527        -3.42327
C         18.14467        37.46887        -3.16583
C         16.86754        38.19026        -2.88758
C         18.16637        40.04486        -1.86206
C         16.92747        39.49094        -2.43741
C         18.15078        41.36125        -1.37275
C         17.12006        42.29357        -1.96527
C         18.24016        44.25099        -0.62790
C         17.10432        43.72891        -1.43811
C         18.38020        45.72838        -0.48630
C         17.13020        46.47508        -0.47181
C         18.46054        48.55792         0.20425
C         17.10053        47.96431        -0.15759
C         18.46714        49.96978         0.79995
C         17.15322        50.39838         1.42293
C         18.37317        52.24758         2.48409
C         17.17545        51.69870         2.02859
C         18.40091        53.53351         3.07741
C         21.95238        10.29703         8.54926
C         21.97721        11.66263         8.24315
C         20.80515        12.45224         8.22743
C         22.01360        14.43947         7.30328
C         20.76034        13.77849         7.72367
C         21.89664        15.59321         6.31045
C         20.55859        16.04302         5.93597
C         21.59939        17.58644         4.22604
C         20.37606        16.82455         4.66711
C         21.45331        18.57520         3.12716
C         20.21360        19.17365         2.97524
C         21.29948        20.96296         1.49269
C         20.08574        20.43789         2.20459
C         21.14903        21.94892         0.36168
C         19.74401        22.45710         0.08092
C         20.63718        23.44853        -2.06127
C         19.50321        23.12491        -1.23244
C         20.43741        24.34901        -3.17266
C         19.13618        24.72472        -3.47987
C         20.31639        27.29064        -4.26885
C         19.03616        26.71310        -4.30495
C         20.41647        28.71677        -4.16247
C         19.13831        29.51303        -4.20091
C         20.55639        31.52908        -3.41837
C         19.19863        30.96475        -3.81939
C         20.52297        33.04602        -3.50570
C         19.35109        33.75711        -3.47244
C         20.62070        35.89051        -3.10717
C         19.41030        35.24743        -3.79586
C         20.61964        37.12851        -2.49922
C         19.47699        38.11293        -2.76380
C         20.44942        39.63345        -0.94231
C         19.30294        39.21377        -1.74009
C         20.50157        41.03845        -0.40640
C         19.27128        41.88212        -0.59095
C         20.72846        44.00402        -0.31800
C         19.36661        43.34814        -0.30218
C         20.68720        45.32954         0.47578
C         19.54774        46.23487         0.02651
C         20.84594        48.15248         1.09693
C         19.67532        47.68605         0.30688
C         20.78791        49.41530         1.77357
C         19.62746        50.23855         1.74719
C         20.73200        51.87102         3.21962
C         19.60078        51.44685         2.45572
C         20.72395        53.18415         3.86798
C         19.54878        54.04158         3.70061
C         20.74294        55.93299         4.73069
C         19.58791        55.37911         4.14405
C         20.86359        57.29936         4.94656
C         24.19653         7.28441         8.59500
C         23.07216         8.10332         8.77134
C         24.32343        10.00465         7.86645
C         23.10881         9.46892         8.41997
C         24.40518        11.37442         7.51596
C         23.28321        12.26104         7.87014
C         24.40457        14.04270         6.41960
C         23.30860        13.67855         7.33392
C         24.24365        15.16615         5.52818
C         23.03572        15.82640         5.40221
C         23.82561        16.91713         3.23626
C         22.91661        16.93786         4.43893
C         23.82253        18.22251         2.46167
C         22.66620        18.99227         2.43373
C         23.69018        20.50801         0.61208
C         22.61018        20.23647         1.61698
C         23.38476        21.29235        -0.61992
C         22.17462        21.99242        -0.72757
C         22.94113        23.03354        -2.87286
C         21.88657        22.82128        -1.86194
C         22.84090        24.20987        -3.83388
C         21.54467        24.96013        -3.94534
C         22.80679        27.21870        -4.83434
C         21.52063        26.43980        -4.45167
C         22.88868        28.60539        -4.20091
C         21.65569        29.35788        -4.14336
C         23.05276        31.45876        -3.89852
C         21.69686        30.87431        -4.29621
C         23.10229        32.92046        -3.60365
C         21.81840        33.75149        -3.88014
C         23.16154        35.68928        -2.65880
C         21.90070        35.16514        -3.30941
C         23.03736        36.93832        -1.87785
C         21.82204        37.63841        -1.86489
C         23.00524        39.53559        -0.64529
C         21.75616        38.85393        -1.03143
C         23.00608        40.91204        -0.18796
C         21.81010        41.70839        -0.16826
C         23.08809        43.71372         0.50257
C         21.87458        43.09052         0.08056
C         23.16695        45.11385         0.82206
C         22.04136        46.04946         0.41745
C         23.15550        47.84192         1.83640
C         21.98744        47.35385         1.18811
C         23.13549        49.09254         2.48182
C         21.91923        49.84530         2.53453
C         22.97372        51.31352         4.27627
C         21.86877        51.05858         3.27272
C         22.98646        52.75222         4.80715
C         21.81687        53.63550         4.56042
C         23.22363        55.69768         4.87616
C         21.86563        55.01955         5.18324
C         23.27377        57.10139         5.42602
C         22.09911        57.88893         5.39817
C         23.38164        59.80256         6.19994
C         22.16872        59.24920         5.78015
C         25.37190         7.78743         8.05200
C         26.63279         9.69554         7.09314
C         25.46061         9.15487         7.66561
C         26.69463        11.04256         6.67121
C         25.55384        11.90362         6.89350
C         26.70126        13.69811         5.58870
C         25.54709        13.23216         6.33626
C         26.63073        14.87391         4.86613
C         25.35718        15.52984         4.64850
C         26.15144        16.37564         2.42881
C         25.18212        16.37833         3.57726
C         26.05080        17.61880         1.56235
C         24.96179        18.46328         1.58548
C         25.87707        19.72146        -0.47956
C         24.92293        19.64452         0.66502
C         25.56900        20.56471        -1.64559
C         24.40990        21.38969        -1.66172
C         25.36057        22.80315        -3.48773
C         24.22842        22.36100        -2.67966
C         25.38322        24.18009        -4.09056
C         24.08131        24.91313        -4.31517
C         25.42046        27.09525        -4.69516
C         24.09160        26.36149        -4.71426
C         25.40996        28.52091        -4.22959
C         24.11782        29.19930        -3.92670
C         25.39854        31.16283        -3.11714
C         24.20311        30.58842        -3.51610
C         25.53807        32.67820        -2.95761
C         24.17473        33.31394        -2.59469
C         25.44864        35.28109        -1.76098
C         24.32242        34.80315        -2.36745
C         25.48859        36.71214        -1.36195
C         24.20006        37.45848        -1.24841
C         25.46847        39.34312        -0.23863
C         24.18364        38.76937        -0.71146
C         25.46400        40.76482         0.22445
C         24.21189        41.53650         0.21174
C         25.46399        43.46818         1.13759
C         24.24744        42.88784         0.64850
C         25.50986        44.83026         1.49753
C         24.33699        45.65500         1.36359
C         25.55754        47.61469         2.25082
C         24.38154        47.04531         1.82209
C         25.66076        49.10743         2.50108
C         24.35853        49.69158         2.99204
C         25.56199        51.43700         4.24488
C         24.32670        50.82799         3.76440
C         25.55706        52.65417         4.94459
C         24.29195        53.39126         5.16802
C         25.56972        55.43109         5.78000
C         24.39173        54.85613         5.31469
C         25.65421        56.82268         5.99653
C         24.49951        57.65561         5.87441
C         24.53376        59.02396         6.25828
C         27.84601        11.54502         6.02144
C         29.05542        13.34680         4.88400
C         27.91009        12.87058         5.50898
C         29.17852        14.79463         4.48780
C         27.81733        15.39074         4.15233
C         28.59252        16.00869         1.75119
C         27.58332        16.14105         2.88690
C         28.46692        17.17061         0.78487
C         27.10555        17.69069         0.50791
C         28.16803        19.12649        -1.31391
C         26.95956        18.69378        -0.60067
C         27.98574        19.93258        -2.56953
C         26.65302        20.71435        -2.64177
C         27.91709        22.74445        -3.59597
C         26.62836        22.02084        -3.38632
C         27.92414        24.21994        -3.81419
C         26.62041        25.02423        -3.80527
C         27.94384        27.04538        -4.22866
C         26.72035        26.27335        -4.69988
C         27.89276        28.38569        -3.78073
C         26.65941        29.10821        -3.69529
C         27.80215        30.92613        -2.51165
C         26.62257        30.37820        -3.10133
C         27.59013        32.05190        -1.52254
C         26.60116        33.11464        -1.95233
C         27.70910        34.90969        -0.61240
C         26.58942        34.38852        -1.42885
C         27.78394        36.24167        -0.25667
C         26.67971        37.18545        -0.58820
C         27.72206        38.96853         0.89825
C         26.43346        38.33137         0.38085
C         27.76015        40.43939         1.24096
C         26.59236        41.29396         0.99727
C         27.86118        43.23254         1.80253
C         26.64236        42.64830         1.30007
C         27.88070        44.61283         2.14656
C         26.74445        45.39781         1.96174
C         28.09256        47.48189         2.64353
C         26.81645        46.86271         2.13458
C         28.04291        48.80142         3.29890
C         26.85314        49.52026         3.34234
C         28.00753        51.29231         4.61701
C         26.80452        50.75595         4.05159
C         27.96163        52.55618         5.27533
C         26.76448        53.23419         5.42598
C         26.72306        54.53956         6.19053
C         30.22328        15.08500         3.43424
C         31.07952        16.17948         1.41917
C         30.00546        15.77420         2.26157
C         30.89339        17.07975         0.34551
C         29.55328        17.60022         0.05884
C         30.56417        19.06576        -1.70499
C         29.41049        18.59122        -1.00231
C         30.43709        20.19599        -2.58731
C         29.22495        20.74313        -2.93084
C         30.37540        22.67228        -4.23034
C         29.08806        21.86103        -3.97370
C         30.37163        24.17096        -4.31812
C         29.17662        24.89393        -4.25403
C         30.41079        27.02093        -4.02167
C         29.17092        26.32947        -4.20423
C         30.35896        28.37273        -3.53857
C         29.10385        29.01032        -3.32301
C         30.24657        30.87072        -2.09472
C         29.02850        30.26085        -2.62084
C         30.19311        32.04417        -1.35387
C         28.88902        32.63106        -0.93698
C         30.18421        34.62046         0.22693
C         28.86893        34.00614        -0.30995
C         30.15011        36.11560         0.39574
C         28.99334        36.85682         0.31116
C         30.19274        38.96908         0.90121
C         29.00709        38.27582         0.67091
C         30.24905        40.38364         1.22391
C         29.05890        41.11493         1.39633
C         30.32941        43.11791         2.09281
C         29.07040        42.48055         1.77761
C         30.36724        44.43057         2.56354
C         29.08017        45.12820         2.90545
C         30.43209        47.17840         3.42563
C         29.22854        46.61515         2.94442
C         30.44238        48.53230         3.85647
C         29.24891        49.30123         3.90895
C         29.21447        50.57050         4.51983
C         31.98511        17.50471        -0.42759
C         32.95863        18.81658        -2.28076
C         31.86689        18.48298        -1.46895
C         32.82880        19.85627        -3.35952
C         31.73988        20.85892        -2.92308
C         32.94476        22.74136        -3.97821
C         31.67199        22.01656        -3.87915
C         32.90577        24.12828        -4.41467
C         31.61760        24.88541        -4.32895
C         32.91513        27.02092        -4.05827
C         31.63221        26.28254        -4.17451
C         32.85157        28.42527        -3.51053
C         31.55900        29.05164        -3.14141
C         32.74898        30.92129        -2.00922
C         31.52458        30.25937        -2.42974
C         32.72824        32.19551        -1.43718
C         31.42854        32.85865        -1.22163
C         32.72541        34.77681        -0.06348
C         31.42916        34.19651        -0.55227
C         32.69992        36.00199         0.56665
C         31.42269        36.70500         0.83956
C         32.74795        38.91320         0.78977
C         31.45452        38.20614         1.00583
C         32.76679        40.41602         1.04316
C         31.50092        41.06663         1.41464
C         32.81582        43.03534         2.16792
C         31.54810        42.38374         1.88551
C         32.81711        44.34300         2.68935
C         31.61390        45.06393         2.89960
C         31.61883        46.37795         3.41935
C         34.11826        20.61726        -3.49978
C         35.40347        22.69818        -3.82919
C         34.14982        22.00462        -3.76834
C         35.46575        24.08810        -3.95354
C         34.24806        24.86484        -4.30035
C         35.37296        26.89516        -3.52244
C         34.20787        26.28491        -3.93147
C         35.36424        28.28737        -3.10470
C         34.02898        28.84068        -2.66997
C         35.20470        30.93272        -2.06762
C         34.02325        30.29885        -2.31845
C         35.20645        32.09893        -1.17569
C         33.93707        32.83423        -0.96991
C         35.25226        34.49327         0.41681
C         33.95785        34.05574        -0.30071
C         35.26758        35.97077         0.82780
C         33.94893        36.70207         0.97817
C         35.21185        38.86975         1.06504
C         33.99007        38.17005         0.94929
C         35.22355        40.27795         1.31213
C         34.04859        41.02652         1.44186
C         34.02971        42.33582         1.96369
C         36.66847        24.79597        -3.77947
C         37.84955        26.90782        -3.39463
C         36.66781        26.20680        -3.58562
C         37.86211        28.28116        -2.79930
C         36.52145        28.96622        -2.88531
C         37.75910        31.06620        -2.22607
C         36.47536        30.45726        -2.72076
C         37.75967        32.26516        -1.56073
C         36.54037        32.75288        -0.87816
C         37.67703        34.87360        -0.35863
C         36.50655        34.10465        -0.33744
C         37.66626        36.20283         0.14214
C         36.48695        36.79541         0.62803
C         36.44344        38.16419         0.91134
C         39.01203        29.18581        -3.16572
C         40.17244        31.33763        -2.72224
C         38.99015        30.49615        -2.74995
C         40.15863        32.55273        -2.10851
C         38.96038        33.07189        -1.48182
C         38.89744        34.33230        -0.92028
O         31.43700        37.33212         2.17649
O         23.63734        21.25119         1.88430
O         16.66325        44.60276        -2.51844
O         32.73752        39.86172        -0.32216
O         14.15786        39.51902        -3.96031
O         22.55708        18.15725         5.17848
O         16.44867        22.49989         2.90880
O         22.58659        22.86565        -4.32369
O         13.78378        29.01443        -1.27353
O         18.90064        25.37346        -4.69575
O         18.38911        43.67000         0.74177
O          8.63003        34.97002        -3.08770
O         15.34547        24.71926         0.45376
O         20.81904        38.65837         0.11101
O         25.50318        28.15569        -5.68265
O         22.17518        15.80838         7.74908
O         23.71517        13.38648         8.71091
O         31.28979        34.16283        -1.99555
O         11.96131        38.27989        -3.74563
O         19.39867        48.49603        -0.92150
O          8.11578        31.50932        -3.22077
O         34.66606        36.14227         2.15010
O         21.29739        25.30790        -5.33638
O         19.53298        41.16830         0.68643
O         14.75582        33.40703        -4.60149
O         16.62744        28.90537        -1.91812
O         26.00820        40.34369        -1.13783
O         26.54816        17.31099        -0.82242
O         27.54357        39.39125         2.29948
O         20.72433        23.25353         0.84804
O         27.75364        47.52013         1.16432
O         26.32632        20.77594        -4.07486
O         24.04307        25.31426        -5.72834
O         27.93493        16.87550         4.08317
O         28.62361        32.80778         0.51721
O         25.33632        23.05504        -4.98285
O         33.05137        28.21759        -4.92869
O         12.42366        24.27614        -2.56712
O         26.56873        37.51244        -1.99747
O         23.41539        52.76928         6.24056
O         28.17607        23.63153        -2.45806
O         18.09744        37.09535        -4.58823
O         20.91623        21.51557         2.78480
O         26.11244        20.50891         0.76792
O         13.06081        39.42351        -0.49396
O         23.60096        32.42902        -4.87965
O         31.12932        21.90748        -5.25120
O         15.10565        27.35812        -4.83073
O         11.61085        30.30762        -1.20117
O         35.95078        31.75392         0.05023
O         22.89402        35.93040        -4.09138
O         12.07225        35.74848        -4.30370
O         28.22030        14.84702         1.02680
O         33.70211        24.49379        -5.59995
O         19.13697        30.56011        -5.21860
O         21.75161        33.89364        -5.31613
H         22.33220        34.64808        -5.56367
O         38.04690        28.04276        -1.33913
H         37.40341        27.35170        -1.07165
O         17.16334        29.00143        -5.48280
H         17.76382        28.63000        -6.16110
O         25.74172        37.74049         1.50492
H         26.05883        38.20630         2.31584
O         19.67709        35.28572        -5.21567
H         19.25184        36.09450        -5.58160
O         22.64444        50.44720         5.40245
H         23.01311        50.88421         6.20560
O         15.35882        23.45863        -2.54185
H         14.80989        23.60568        -3.34384
O         21.72460        54.87739         6.61347
H         22.29564        54.11621         6.88434
O         18.66431        50.89105        -0.30947
H         19.28481        50.44424        -0.93106
O         17.49333        42.37499        -3.37383
H         17.09112        43.20371        -3.72646
O         12.65221        27.30483        -4.38404
H         13.55330        27.32017        -4.86341
O         20.46932        45.02340         1.86704
H         19.61573        44.52858         1.92889
O         15.72836        37.74468        -4.96637
H         15.36071        38.63407        -5.17586
O         25.75122        15.25960         1.58459
H         26.58985        14.94234         1.10398
O         27.91864        18.91532        -3.61688
H         27.64669        19.39146        -4.43937
O         26.59509        54.24722         7.59691
H         25.74417        53.77991         7.73066
O         26.94766        25.81788        -6.04082
H         26.64117        26.52227        -6.65289
O         10.41084        28.67489        -4.28144
H         11.15048        28.09007        -4.60013
O         23.20928        15.92261         2.35155
H         23.93111        15.53418         1.79387
O         10.14211        33.39187        -4.44807
H          9.70314        34.27044        -4.54218
O         36.38564        30.98787        -4.10036
H         35.66421        30.50995        -4.56427
O         16.51625        47.42981         2.09956
H         15.83609        47.50090         2.80176
O         22.65999        27.49079        -6.24009
H         22.67497        26.62023        -6.69861
O         30.42137        34.13990         1.57652
H         29.80758        33.38537         1.73956
O         32.19412        21.49481        -1.69089
H         32.29214        20.79611        -1.00848
O         26.85814        31.36520        -0.44867
H         27.17382        31.75671         0.40235
O         35.27446        33.71930         1.64649
H         34.83564        34.27367         2.33517
O         20.22313        15.79021         3.61800
H         19.35412        15.35557         3.75396
O         33.76647        28.16865        -1.38467
H         34.38023        28.54191        -0.71594
O         23.73235        32.74775        -1.33121
H         24.50887        32.68580        -0.73304
O         22.29757        46.41273        -0.97553
H         23.13452        46.92281        -1.01025
O         28.70378        21.22404        -5.20855
H         29.53387        20.96926        -5.67522
O         16.78519        21.28622        -0.52892
H         16.29069        21.71549        -1.26488
O         32.45358        19.23594        -4.61786
H         32.32466        19.94750        -5.28172
O         23.28624        55.78828         3.41139
H         24.07867        56.31672         3.17860
O         29.65097        15.50326         5.67915
H         29.37613        16.44186         5.57008
O         21.49135        31.14051        -5.67825
H         21.69399        32.09494        -5.84448
O         26.39757        25.52488        -2.46292
H         26.94092        24.97538        -1.84800
O         28.79454        44.74129         4.32076
H         28.83773        43.76140         4.36634
O         25.91290        49.68055         1.17121
H         26.68799        49.18561         0.80758
O         20.92932        44.27545        -1.72953
H         21.60217        44.99610        -1.81484
O         20.85873        31.13534        -2.05625
H         20.23002        31.57749        -1.44867
O         19.95195        38.84852        -3.93720
H         19.52786        38.43831        -4.72700
O         26.01593        33.19915        -4.21571
H         25.35855        32.93782        -4.90703
O         16.64103        48.65324        -1.33784
H         17.38388        48.65775        -1.97923
H          5.40700        31.06489         0.45677
H          5.84064        33.42597         1.06612
H          7.29967        27.09766        -1.03227
H          6.30637        29.05309        -0.68853
H          6.99154        35.54619         0.69993
H          7.97038        37.69995         0.24727
H          9.90997        23.11294         0.19476
H          8.54103        25.08628        -0.52379
H          8.82811        39.88582        -0.34067
H         10.00540        42.12999        -0.55465
H         12.95831        20.05344         2.81994
H         11.42704        21.47453         1.40488
H         11.24736        44.24268        -0.47892
H         12.50466        46.27520        -0.09745
H         15.84491        17.41652         5.65338
H         14.42230        18.77575         4.29088
H         13.79752        48.11668         0.90714
H         15.08293        50.04252         1.79945
H         18.62164        14.01046         7.91283
H         17.26354        15.78976         6.86282
H         16.22704        52.22152         2.22605
H         17.49618        54.15863         3.03261
H         21.00641         9.83521         8.87050
H         19.85683        11.97850         8.52469
H         18.72888        56.03412         3.92936
H         20.01011        57.96123         4.73120
H         24.14150         6.22580         8.88506
H         22.14863         7.68049         9.19203
H         23.42252        60.85945         6.49831
H         21.25926        59.86609         5.75488
H         26.24272         7.13168         7.91050
H         27.50659         9.04474         6.93930
H         26.59286        57.25625         6.37020
H         25.47893        59.45878         6.61337
H         28.71962        10.88638         5.90129
H         29.93271        12.69027         4.78468
H         28.89094        52.98470         5.67834
H         27.69193        55.08478         6.06485
H         31.26627        14.92462         3.75739
H         32.09142        15.79021         1.61648
H         31.37510        48.96655         4.24475
H         30.13030        50.98468         4.96610
H         32.98049        17.08282        -0.21915
H         33.92590        18.31685        -2.12152
H         33.77772        44.82264         2.92881
H         32.57058        46.83091         3.73295
H         35.07121        20.07022        -3.44099
H         36.32801        22.13613        -3.63276
H         36.18988        40.76000         1.52052
H         34.97912        42.81911         2.23726
H         37.61209        24.24071        -3.67413
H         38.80491        26.36277        -3.44605
H         38.57998        36.81057         0.07229
H         37.37580        38.74559         0.85924
H         39.94467        28.73665        -3.53939
H         41.09917        30.95476        -3.17450
H         41.06938        33.16895        -2.07869
H         39.79476        34.96842        -0.90705
