         260
 CSIRO Nanostructure Databank - Neutral Graphene Oxide Data Set
C         30.28992        31.80784        -0.94395
C         30.36081        33.04676        -0.68015
C         30.29213        36.17376        -0.35866
C         30.11865        37.41806        -0.19133
C         30.24735        40.42031         1.06212
C         30.11719        41.62273         1.45586
C         32.63325        28.88238        -1.07896
C         31.61379        29.58665        -1.25801
C         32.69794        31.64980        -0.67493
C         31.38151        30.95342        -1.01509
C         32.71412        33.14900        -0.40732
C         31.43032        33.93674        -0.54417
C         32.65186        36.14108        -0.67710
C         31.40043        35.32314        -0.51856
C         32.53371        37.54016        -0.13651
C         31.27972        38.04131         0.65120
C         32.56865        40.27693         1.01290
C         31.28210        39.53509         0.75914
C         32.57193        41.74182         1.37980
C         31.23697        42.55414         1.05604
C         32.57444        44.48003         1.76131
C         31.49704        43.87960         1.70367
C         35.33920        27.26290        -0.68654
C         35.09660        28.74121        -0.48883
C         34.02424        29.43139        -1.32428
C         35.17892        31.63125        -0.85910
C         33.99999        30.94764        -0.95082
C         35.19207        33.16573        -1.08739
C         34.05547        33.92345        -0.33480
C         35.31558        36.08463        -0.59985
C         33.99173        35.39784        -0.78720
C         35.44661        37.43704        -0.78213
C         33.51918        38.43404        -0.37332
C         35.15184        40.34483         0.35853
C         33.81291        39.63007         0.45665
C         35.13851        41.82487         0.80325
C         33.91159        42.47586         1.43145
C         35.22919        44.76535         1.47452
C         33.95725        43.99365         1.72402
C         35.27439        46.24287         1.26373
C         37.75758        27.27048        -0.33092
C         36.41685        26.72592        -0.38848
C         37.74939        28.63100        -0.47125
C         36.48594        29.37343        -0.80490
C         37.65960        31.55391        -0.24875
C         36.48488        30.87309        -0.89855
C         37.63564        33.03996        -0.12545
C         36.60024        33.87983        -0.86571
C         37.71796        35.99830        -0.03974
C         36.54180        35.32974        -0.36222
C         37.80902        37.46252         0.01383
C         36.62779        38.23962        -0.45216
C         37.70103        40.36669         0.46030
C         36.47927        39.72763        -0.18110
C         37.96033        41.77265         0.12632
C         36.11763        42.79939         0.26530
C         37.61244        44.78455         0.31429
C         36.33608        44.07899         0.69395
C         37.68926        46.23828         0.63161
C         36.45768        46.67425         1.07471
C         40.08449        24.63393         0.86205
C         39.03084        25.22557         0.56994
C         40.25555        27.27140         0.15179
C         39.01433        26.46059        -0.28127
C         40.25152        28.60820        -0.13142
C         39.04923        29.39889        -0.65290
C         40.21940        31.62625        -0.17958
C         38.96345        30.77844         0.06929
C         40.21641        32.98284        -0.01142
C         38.93610        33.72368         0.23555
C         40.24026        35.93968         0.48628
C         38.93209        35.21547         0.35585
C         40.22546        37.41936         0.62298
C         38.93809        38.12617         0.44393
C         40.20624        40.33929         1.05316
C         38.92586        39.56728         0.79864
C         40.21085        41.86569         1.09766
C         38.99852        42.55148         0.56341
C         40.24409        44.79352         0.76799
C         38.98318        44.01716         0.31100
C         40.21661        46.21658         0.23238
C         38.93524        47.04557         0.53041
C         39.94968        48.51952        -1.07850
C         38.89143        48.11403        -0.56456
C         42.66262        24.60447         1.25317
C         41.41046        25.16956         0.98604
C         42.72617        27.26309         0.67140
C         41.47406        26.57152         0.63219
C         42.70410        28.72310         0.50374
C         41.52778        29.36076        -0.15999
C         42.78042        31.58218        -0.05165
C         41.49578        30.86270        -0.33662
C         42.78787        33.06778        -0.07373
C         41.47748        33.79222        -0.11256
C         42.69833        35.93479         0.20568
C         41.51272        35.25134         0.18399
C         42.75358        37.42321         0.17679
C         41.46474        38.20097         0.29764
C         42.77262        40.33536         0.97324
C         41.47544        39.66285         0.61650
C         42.81156        41.84868         0.90962
C         41.52520        42.61519         0.94623
C         42.69562        44.62504         0.02838
C         41.52476        44.01629         0.43198
C         42.65439        46.12506        -0.02076
C         41.33644        46.78130        -0.31842
C         42.39298        48.58229        -1.74437
C         41.29938        48.04947        -1.10902
C         43.75402        25.24138         1.14674
C         45.31523        27.21591         0.46550
C         43.98908        26.58359         0.85200
C         45.65153        28.47673         1.26445
C         43.64325        29.51157         1.10745
C         44.97168        31.75173         1.29259
C         43.85873        30.92469         0.74837
C         45.26227        32.98886         0.79489
C         44.00274        33.74877         0.47516
C         45.28234        35.90595         0.15411
C         43.98110        35.22309         0.50308
C         45.31821        37.32289         0.78293
C         44.05536        38.12033         0.43142
C         45.35625        40.29994         0.85352
C         44.04387        39.55293         0.90902
C         45.30417        41.70700         0.31905
C         44.01198        42.46813         0.24635
C         45.14044        44.48434        -0.65765
C         43.99446        43.92545        -0.08749
C         45.56933        46.82396        -1.48488
C         44.91939        47.95597        -1.92962
C         43.60784        48.09105        -1.81551
C         47.73959        27.08525         0.45955
C         46.65255        26.49713         0.51926
C         48.01375        28.56899         0.31815
C         46.83304        29.16248         1.15818
C         47.91154        31.38991         1.04612
C         46.86822        30.57621         1.46716
C         47.92619        32.90461         0.93547
C         46.58733        33.70217         0.89092
C         47.74765        35.80774         0.17441
C         46.58283        35.14027         0.43849
C         47.76792        37.28815        -0.05231
C         46.54799        38.08078         0.30178
C         47.84683        40.27724         0.21561
C         46.62994        39.54112         0.63400
C         47.84692        41.63611         0.06621
C         46.59366        42.45369         0.16557
C         47.82679        44.27139        -1.15764
C         46.51992        43.84845        -0.43254
C         47.82142        45.76210        -1.11510
C         46.95767        46.61667        -1.24364
C         50.66551        28.98112         0.61846
C         49.28389        29.26412         0.77077
C         50.96491        31.83797         0.66420
C         49.13366        30.61974         1.08045
C         50.50842        32.97059         0.00865
C         49.11879        33.56070         0.16684
C         50.23645        35.85902        -0.42836
C         48.99509        35.06334        -0.16809
C         50.33775        37.19291        -0.10407
C         49.09007        38.00997        -0.11848
C         50.40654        40.16219         0.46937
C         49.10935        39.50701        -0.00256
C         50.36132        41.69614         0.36868
C         49.10620        42.35663        -0.08963
C         50.37760        44.24107        -0.56797
C         49.07298        43.65242        -0.57738
C         51.74771        29.60503         0.47297
C         52.88192        31.70365        -0.64567
C         52.05721        30.96209         0.23578
C         52.69882        32.86207        -1.08602
C         51.43288        33.60847        -0.98990
C         52.47685        36.02945        -1.29798
C         51.35037        35.11844        -1.12388
C         52.58692        37.21789        -0.98791
C         51.69544        37.96462        -0.00608
C         52.79930        40.29392         0.17317
C         51.61431        39.46744        -0.33265
C         52.82059        41.53655         0.15859
C         51.74256        42.49667         0.32227
C         51.50940        43.77320        -0.34248
O         49.15233        38.89114        -1.31631
O         50.91352        34.24248        -2.16913
O         47.41127        33.57701         2.10742
O         43.59966        46.79409         0.37126
O         38.34064        44.44100        -0.90914
O         41.68166        29.98128        -1.48465
O         37.93393        39.92922         1.82027
O         32.65919        32.19381         0.70353
O         34.93456        41.87147         2.24499
O         41.31525        39.19642        -0.76157
O         38.77781        34.35087         1.54659
O         33.27672        35.81533        -1.97338
O         44.58260        28.96736         2.00617
O         44.49061        41.68030        -0.90601
O         37.13646        32.21767         0.96264
O         48.66962        34.01835        -1.14130
O         50.18536        31.30614         1.69941
O         50.99580        42.34226         1.52969
O         34.82240        39.45426         1.48544
O         46.73405        43.64204         0.99688
O         34.43935        38.16884        -1.40022
O         43.78121        34.50150         1.75374
O         39.21437        26.07299        -1.69341
O         44.88462        45.60848        -1.43383
O         43.36353        39.76333         2.18233
O         36.65750        30.06644        -2.08818
O         46.87010        37.82136        -1.09472
O         40.34356        36.60555         1.82063
O         40.18253        41.05994         2.30661
O         43.59032        37.94375        -0.92283
O         45.80985        31.09391         2.19408
O         42.26679        33.55223        -1.34268
O         46.20552        39.96201         1.98552
O         34.87895        44.30633         2.78868
O         32.56351        40.74164         2.41350
O         36.78257        39.30431        -1.51318
O         43.91621        31.02328        -0.75239
O         42.40034        42.50554         2.13258
O         37.24137        33.97565        -2.21364
O         36.98000        42.30141        -0.73330
O         51.47992        39.68849        -1.70328
H         51.91797        38.95775        -2.19348
O         40.46991        25.37301        -1.81143
H         40.19615        24.42264        -1.79806
O         31.22869        42.73972        -0.34577
H         30.40847        43.20969        -0.60347
O         45.16394        35.92218        -1.27918
H         45.80818        36.56530        -1.66532
O         34.79317        28.98657         0.87095
H         35.36307        28.43394         1.44424
O         39.21074        29.67272        -2.04772
H         39.39460        28.83715        -2.52468
O         31.18965        37.50815         1.95553
H         30.92536        36.56605         1.90940
O         47.68478        43.86030        -2.51781
H         48.47870        44.13109        -3.02452
O         38.95948        30.47596         1.47621
H         38.48146        31.21090         1.93234
O         52.17328        37.77395         1.30274
H         52.83470        38.47268         1.50263
O         47.79561        28.91108        -1.03827
H         46.93106        28.52536        -1.32101
O         50.55587        39.81135         1.84636
H         50.92832        40.59222         2.32031
O         34.30173        29.34847        -2.70789
H         34.47662        28.41303        -2.94177
O         34.85241        33.29311        -2.48364
H         35.44318        32.70720        -3.00547
O         39.14176        47.70781         1.76945
H         39.84149        48.38491         1.66060
O         40.13981        44.81783         2.20785
H         41.00075        45.07777         2.59701
O         34.42105        34.01694         1.04717
H         34.11921        33.19039         1.49396
O         36.72704        35.14663        -2.89679
H         35.79742        34.87494        -3.12680
O         45.17850        27.66800        -0.89608
H         44.83365        26.93202        -1.44544
O         45.39685        37.16268         2.20201
H         45.42343        38.05112         2.62577
