         280
 CSIRO Nanostructure Databank - Neutral Graphene Oxide Data Set
C         30.49445        32.00547         0.65254
C         30.57615        33.14462         0.12071
C         30.60357        35.87678        -1.49780
C         30.74016        37.05193        -1.14160
C         30.43967        40.22284        -0.72432
C         30.37581        41.45391        -0.75257
C         32.57274        28.89031         0.31145
C         31.56816        29.59237         0.43367
C         32.76430        31.64071        -0.21558
C         31.23275        30.92545        -0.11287
C         32.84016        32.93860        -0.60900
C         31.55723        33.73403        -0.72749
C         33.33391        36.18249        -1.00386
C         31.26581        34.62386        -1.76201
C         32.87412        37.39642        -0.25119
C         31.64473        37.96194        -0.47917
C         32.71748        40.21008         0.05123
C         31.39145        39.34989         0.03967
C         32.67383        41.57984         0.06112
C         31.27467        42.33808         0.07370
C         32.65401        44.32924        -0.17746
C         31.58297        43.73878        -0.33731
C         35.59946        27.31704         0.31092
C         35.15497        28.65334         0.49431
C         33.95285        29.33209        -0.10486
C         35.27887        31.52024         0.19650
C         33.92593        30.85424         0.36247
C         35.37263        32.97131        -0.06554
C         34.15834        33.68975        -0.58019
C         35.19767        35.82639         0.54956
C         34.07408        35.15661        -0.21062
C         35.17744        37.34073         0.90001
C         33.98855        38.11972         0.33106
C         35.28550        40.24040         0.15614
C         33.96947        39.49782         0.28979
C         35.23265        41.70224         0.53579
C         33.91584        42.38750         0.32251
C         35.15787        44.59237         0.49039
C         34.05805        43.82276        -0.23530
C         35.47044        45.94203        -0.13834
C         38.01780        27.06307         0.00123
C         36.65553        26.67835         0.08991
C         38.21053        28.35558         0.62273
C         36.22370        29.43571         0.93572
C         37.76761        31.50503         0.39684
C         36.40057        30.82032         0.56401
C         37.65792        32.87149         1.18131
C         36.51967        33.70772         0.56248
C         37.70027        35.85880         0.99889
C         36.47513        35.06465         0.68256
C         37.73999        37.28158         0.49358
C         36.46991        38.05786         0.54257
C         37.76392        40.28461         0.46734
C         36.48064        39.55863         0.83445
C         37.78295        41.66312         0.40313
C         36.52801        42.45416         0.40688
C         37.80480        44.58210         0.12756
C         36.51353        43.81981         0.39368
C         37.81096        46.07629         0.60317
C         36.52403        46.57238        -0.02118
C         40.23690        24.80990        -1.98707
C         39.23151        25.31545        -1.42415
C         40.35568        27.28405        -0.81302
C         39.11939        26.55972        -0.74940
C         40.33192        28.79312        -0.58852
C         39.12602        29.26556         0.18135
C         40.33166        31.40532         0.88409
C         39.03336        30.67068         0.71339
C         40.29686        32.91170         1.09132
C         38.99718        33.63336         1.28461
C         40.30008        35.91697         1.25744
C         38.98142        35.14335         1.27263
C         40.29949        37.37991         0.93047
C         39.07693        38.01984         0.28703
C         40.29052        40.24360         0.17740
C         39.04759        39.52621         0.74330
C         40.27502        41.71737         0.50459
C         39.06468        42.37753         0.46056
C         40.32670        44.62063         0.53348
C         39.04016        43.85533         0.61765
C         40.29363        46.07327         0.19631
C         39.09966        46.75092         0.22759
C         40.25158        48.77076        -0.55239
C         39.24676        48.12235        -0.20459
C         42.77729        24.95326        -2.44775
C         41.51932        25.39607        -1.98218
C         42.86389        27.24196        -0.88295
C         41.58589        26.68612        -1.27150
C         42.86165        28.52707        -0.08344
C         41.58438        29.28144         0.12830
C         42.72174        31.49585         0.17110
C         41.60358        30.76660         0.41225
C         42.74448        32.99095         0.32065
C         41.49564        33.72001         0.68590
C         42.71711        35.94926         0.44282
C         41.63448        35.15376         1.24653
C         42.80434        37.42465         0.78344
C         41.58071        38.12468         0.70644
C         42.78823        40.23024         0.53334
C         41.56638        39.52070         0.57142
C         42.73790        41.67949         0.40324
C         41.55595        42.39452         0.44798
C         42.82835        44.63540         0.56906
C         41.57500        43.87297         0.10422
C         42.87453        46.01110        -0.07433
C         41.60823        46.85317         0.04730
C         42.85157        48.64131        -1.08486
C         41.47546        48.02738        -1.06620
C         43.86516        25.49592        -2.13973
C         45.34544        26.76144        -0.56468
C         44.09972        26.55386        -1.21809
C         45.33159        28.84886         0.13033
C         44.07076        29.38969        -0.07545
C         45.18027        31.54278         0.21030
C         43.96609        30.84903        -0.45138
C         45.21855        33.06355        -0.06289
C         44.05163        33.72443         0.66556
C         45.23238        35.90706         0.49579
C         44.05046        35.23595         0.47287
C         45.32177        37.35958         0.93381
C         44.02709        38.11563         0.71062
C         45.29582        40.22657         0.42313
C         44.02574        39.52368         0.60015
C         45.26755        41.60695         0.20631
C         43.99390        42.37531        -0.03605
C         45.27574        44.50186         0.04527
C         44.07901        43.84058         0.33234
C         45.31845        45.86894        -0.44461
C         44.08353        46.58532        -0.48063
C         43.85015        47.90612        -1.02525
C         47.73071        27.38591        -0.72073
C         46.68999        26.71851        -0.99311
C         47.81991        28.89364        -0.85125
C         46.54073        29.47601        -0.25470
C         47.64466        31.49156         0.76010
C         46.54789        30.96938        -0.19427
C         47.64743        33.01427         0.69031
C         46.52546        33.69797         0.37132
C         47.82373        35.92058         0.27900
C         46.52169        35.18581         0.27571
C         47.80759        37.40792         0.45116
C         46.59720        38.08855         0.52631
C         47.75225        40.23136         0.06888
C         46.55123        39.52368         0.39296
C         47.69839        41.61399        -0.17853
C         46.48092        42.30778        -0.02918
C         48.45846        44.75118        -2.17015
C         46.48376        43.72988        -0.01752
C         47.37405        45.70620        -2.03653
C         46.45529        46.05084        -1.27352
C         50.37216        29.19212        -0.51997
C         49.03636        29.62311        -0.28790
C         50.09324        31.51012         1.05048
C         48.97139        30.82941         0.41218
C         50.03286        32.84093         1.38161
C         48.83992        33.76716         1.26108
C         50.33024        35.95123         0.92367
C         49.13229        35.09045         0.40598
C         50.27730        37.40940         0.42790
C         49.07931        38.10776         0.32612
C         50.20971        40.30588        -0.04989
C         49.05127        39.55485         0.07963
C         50.16426        41.82655        -0.19365
C         48.85392        42.31912        -0.85815
C         50.05860        44.38716        -0.34971
C         48.71335        43.98481        -0.76481
C         51.52550        29.71360        -0.57993
C         52.85905        31.79789         0.17247
C         52.09975        30.62797         0.31826
C         52.89198        32.98013         0.58415
C         51.97605        33.97044         1.03909
C         52.54939        36.13551        -0.06754
C         51.67568        35.21560         0.55545
C         52.72798        37.36826         0.01764
C         51.55521        38.18465         0.40759
C         52.62649        40.54913        -0.15414
C         51.51799        39.67399         0.26353
C         52.59915        41.77178        -0.34434
C         51.46125        42.55101        -0.90545
C         51.21626        44.01428        -0.60559
O         34.42480        42.12553         1.66685
O         39.71298        44.31758         1.82707
O         47.65829        44.38253         0.11897
O         39.63868        30.76498         2.02137
O         45.27733        27.50111         0.60954
O         33.40094        36.21415        -2.22600
O         39.82322        33.23274         2.43802
O         41.87686        33.57960        -0.71811
O         38.13892        35.66002         2.36920
O         37.27581        28.78210         1.58818
O         34.02334        35.25949         1.24023
O         36.93418        37.52149        -0.72355
O         51.13032        33.43479         2.05452
O         48.77346        41.94388        -2.21635
O         47.15557        35.60917        -1.00739
O         35.19512        33.32669        -1.52481
O         51.24789        30.77487         1.47813
O         51.67329        39.05614         1.57123
O         40.23641        36.93450         2.30892
O         42.07979        28.43747         1.19510
O         50.26834        36.04678         2.35601
H         50.92272        36.71453         2.65508
O         40.27400        40.26900        -1.27506
H         40.32075        39.33372        -1.59274
O         34.04297        29.23549        -1.51497
H         33.18028        29.48530        -1.90821
O         46.90109        31.51487        -1.49803
H         47.26379        30.78459        -2.06498
O         50.11550        42.29549         1.15960
H         50.92426        41.99760         1.62858
O         31.86774        34.47240        -2.95376
H         31.86383        35.30772        -3.46559
O         39.35735        37.89169        -1.12493
H         38.50447        38.01430        -1.60679
O         42.08141        35.04789         2.61453
H         41.31823        34.73793         3.15456
O         39.19310        39.52680         2.17979
H         38.29592        39.54880         2.59139
O         37.22253        32.57605         2.51348
H         38.02974        32.41835         3.05650
O         42.29056        36.04781        -0.94097
H         42.42017        35.17298        -1.37901
O         34.44129        43.67367        -1.60470
H         34.57133        44.57028        -1.98282
O         36.37987        39.70322         2.27055
H         35.73274        39.04181         2.62156
O         47.84353        29.14432        -2.28243
H         47.20718        28.53832        -2.71861
O         30.81786        42.29470         1.40641
H         30.11352        42.96359         1.53262
O         49.51159        34.65080        -0.90058
H         48.71038        34.72233        -1.47671
O         41.59987        43.94187        -1.35488
H         40.80403        43.48304        -1.70196
O         45.02711        33.35442        -1.46306
H         45.80608        32.96941        -1.93547
O         34.81734        44.79213         1.83577
H         35.56382        45.25576         2.27686
O         35.58441        40.20683        -1.26521
H         34.90230        40.71967        -1.74857
O         41.19017        47.47898        -2.31341
H         41.23751        48.17274        -3.00139
O         43.89844        42.39370        -1.51504
H         43.10515        42.94892        -1.73801
O         35.03357        37.39123         2.33990
H         34.32315        36.75704         2.59131
O         41.76459        47.54919         1.30905
H         41.89961        46.85711         1.99643
O         30.94513        39.27085         1.38196
H         30.78731        40.18901         1.70419
O         51.39979        42.38774        -2.29661
H         52.07439        42.95381        -2.72582
O         37.61551        46.10803         2.00857
H         37.97052        46.94873         2.36541
O         45.46222        37.26407         2.39652
H         44.63298        36.88327         2.75871
O         37.93860        31.81410        -1.00462
H         37.09169        32.13065        -1.38866
O         48.45129        34.12769         2.60328
H         49.20181        34.62675         3.00606
O         33.69003        30.78848         1.79081
H         33.52448        31.69252         2.13062
O         44.27579        33.57498         2.08395
H         43.54347        34.04297         2.56170
O         49.13874        44.48012        -3.13393
H         49.54852        42.31106        -2.70689
O         47.40443        31.12596         2.14324
H         47.93652        31.72386         2.71277
O         40.37202        29.43704        -1.89270
H         39.52888        29.25815        -2.35864
O         42.66819        44.84210         2.01680
H         43.54294        45.09241         2.38242
O         43.91586        30.98605        -1.87783
H         43.92521        31.95207        -2.08255
O         30.72603        30.76063        -1.40034
H         30.41138        31.62287        -1.74108
O         44.90836        31.27060         1.58631
H         45.67930        31.51683         2.14951
O         37.97116        44.60634        -1.31442
H         37.26205        45.17352        -1.69039
