         204
 CSIRO Nanostructure Databank - Neutral Graphene Oxide Data Set
C        -11.16185         0.68696        -0.10820
C         -9.92963         1.43980        -0.04567
C         -8.67777         0.71968        -0.09072
C         -7.44339         1.44712         0.02523
C         -6.19544         0.73405        -0.09165
C         -4.95139         1.43294         0.02909
C         -3.70983         0.72471        -0.09734
C         -2.46727         1.42081         0.05359
C         -1.23527         0.71664        -0.10356
C         -0.00101         1.40957         0.05737
C          1.24856         0.70770        -0.07946
C          2.49514         1.40529         0.03712
C          3.73184         0.70941        -0.08267
C          4.96305         1.42132         0.04521
C          6.20545         0.71205         0.06756
C          7.40377         1.42388         0.28533
C          8.64297         0.69024         0.71530
C          9.92054         1.44505         0.42982
C         11.14584         0.67848         0.45624
C         -9.92934         2.81981         0.05729
C         -8.70830         3.56262         0.22074
C         -7.45027         2.83609         0.22287
C         -6.21010         3.55607         0.40935
C         -4.94432         2.83216         0.32687
C         -3.71541         3.50358         0.48811
C         -2.47329         2.81851         0.33115
C         -1.22939         3.51646         0.48341
C         -0.02285         2.79471         0.38301
C          1.25380         3.46952         0.64710
C          2.51277         2.80151         0.31347
C          3.71617         3.53180         0.31848
C          4.95735         2.83339         0.19078
C          6.18815         3.55271         0.21816
C          7.41500         2.83863         0.27816
C          8.66388         3.56697         0.28893
C          9.90185         2.81073         0.31042
C         -8.73695         4.93357         0.37754
C         -7.52121         5.71288         0.76584
C         -6.24037         4.92767         0.61499
C         -5.01279         5.67657         0.91086
C         -3.69075         4.93322         0.85411
C         -2.44447         5.69710         0.61559
C         -1.22080         4.97038         0.56723
C         -0.01213         5.69387         0.49714
C          1.26175         5.00192         0.69667
C          2.51342         5.69653         0.39257
C          3.71869         4.97634         0.34490
C          4.95463         5.68759         0.19910
C          6.18869         4.98100         0.19652
C          7.42654         5.69440         0.14772
C          8.65066         4.95441         0.20144
C         -7.41141         7.06123         0.08131
C         -6.24936         7.77096         0.11182
C         -5.02270         7.16714         0.70382
C         -3.70735         7.87701         0.50627
C         -2.44832         7.09328         0.46476
C         -1.23739         7.79126         0.20134
C         -0.00200         7.09346         0.26911
C          1.23964         7.80079         0.11463
C          2.48407         7.10320         0.16926
C          3.70998         7.80982         0.01665
C          4.94687         7.10413         0.07190
C          6.18937         7.81211        -0.03307
C          7.40081         7.10578         0.03182
C         -6.15118         9.12155        -0.41208
C         -4.97169         9.79782        -0.50511
C         -3.70013         9.20820        -0.15143
C         -2.50615         9.84435        -0.38241
C         -1.23745         9.19672        -0.12893
C         -0.02936         9.86983        -0.28083
C          1.22821         9.20474        -0.13424
C          2.46036         9.89786        -0.26537
C          3.68966         9.22918        -0.17820
C          4.95296         9.91525        -0.28475
C          6.14116         9.24207        -0.20439
C        -11.15527        -0.67381        -0.15247
C         -9.91632        -1.41581        -0.18613
C         -8.67316        -0.68051        -0.21484
C         -7.43335        -1.39013        -0.36796
C         -6.21850        -0.64833        -0.38237
C         -4.96263        -1.31555        -0.72842
C         -3.69303        -0.65459        -0.42910
C         -2.47699        -1.38820        -0.50748
C         -1.23138        -0.69139        -0.36707
C          0.00066        -1.39336        -0.47613
C          1.25820        -0.68740        -0.35633
C          2.50745        -1.36860        -0.46681
C          3.73653        -0.70052        -0.30481
C          5.00354        -1.41668        -0.37114
C          6.22478        -0.71437        -0.14100
C          7.49116        -1.39299        -0.09824
C          8.66971        -0.74485         0.26653
C          9.91703        -1.45430         0.32914
C         11.13936        -0.68593         0.47551
C         -9.89966        -2.80167        -0.14112
C         -8.67064        -3.53563        -0.16770
C         -7.43024        -2.81830        -0.38597
C         -6.22534        -3.55754        -0.49781
C         -4.97370        -2.87225        -0.82847
C         -3.70682        -3.56901        -0.61463
C         -2.47988        -2.81944        -0.62805
C         -1.23812        -3.50851        -0.69642
C         -0.03470        -2.80569        -0.66775
C          1.22979        -3.55003        -0.85716
C          2.52657        -2.81251        -0.77280
C          3.78570        -3.56848        -0.55352
C          4.99878        -2.82697        -0.52834
C          6.25899        -3.57533        -0.63960
C          7.57140        -2.82014        -0.45056
C          8.76484        -3.59339        -0.04830
C          9.94523        -2.84781         0.24139
C         -8.64849        -4.91243         0.03595
C         -7.42978        -5.66902         0.00253
C         -6.19068        -4.96128        -0.30890
C         -4.95922        -5.66388        -0.36152
C         -3.73012        -4.96113        -0.40466
C         -2.40032        -5.61729        -0.07598
C         -1.26621        -5.01206        -0.91586
C          0.04777        -5.69817        -0.58823
C          1.21764        -5.00560        -0.58344
C          2.49621        -5.69277        -0.15360
C          3.77742        -4.96335        -0.49508
C          5.01307        -5.70673        -0.39110
C          6.25216        -5.02070        -0.38842
C          7.46977        -5.70982        -0.14019
C          8.70232        -4.98174        -0.00004
C         -7.42475        -7.01554         0.30264
C         -6.26004        -7.92118         0.01236
C         -4.97584        -7.15448        -0.33760
C         -3.67877        -7.86960        -0.17371
C         -2.39907        -7.12168        -0.16612
C         -1.23828        -7.82910        -0.24021
C          0.03982        -7.14855        -0.37066
C          1.21384        -7.86592        -0.39335
C          2.48912        -7.13927        -0.59875
C          3.78425        -7.88276        -0.62986
C          5.01481        -7.12513        -0.30376
C          6.20881        -7.81307         0.00854
C          7.41664        -7.10686         0.10649
C         -6.00841        -8.96318         1.09277
C         -4.82967        -9.60627         1.22696
C         -3.63281        -9.20100         0.49384
C         -2.45681        -9.87674         0.49281
C         -1.29155        -9.34567        -0.32559
C          0.02448        -9.98940         0.00659
C          1.24075        -9.31063        -0.15759
C          2.47694        -9.97609        -0.05063
C          3.77659        -9.40920        -0.57485
C          5.00164        -9.96166         0.11538
C          6.12873        -9.24597         0.29111
O          7.08283        -3.15267        -1.78906
O         -2.09931        -5.26057         1.30674
H         -2.78218        -5.65964         1.88481
O         -4.42030         7.90818         1.80307
O         -4.34246         5.24270         2.14102
O          3.84154        -9.90586        -1.94838
H          3.37313        -9.23473        -2.50004
O         -6.67779        -8.68687        -1.15518
H         -5.88582        -8.74225        -1.74371
O         -5.00706        -2.01919        -2.01035
O          1.93281        -3.15915        -2.09631
O         -1.57684        -9.68292        -1.72597
H         -2.36231        -9.15904        -1.99813
O          8.55597         0.62981         2.19372
H          8.53810         1.55554         2.51857
O          2.46756        -5.75288         1.31431
H          2.38732        -4.83864         1.65860
O         -7.66183         5.99841         2.20553
H         -6.79035         6.30991         2.53496
O         -4.31822        -7.78780        -1.51129
O          3.14717        -7.39006        -1.87825
O          1.30043         4.19370         1.92141
O         -1.57753        -5.26647        -2.30253
H         -0.86145        -4.88810        -2.85433
H         12.09093        -1.23691         0.51344
H         12.10191         1.22401         0.45923
H         10.84877         3.36236         0.19948
H          9.60368         5.50403         0.16932
H          8.35141         7.65717        -0.02722
H          7.09077         9.79206        -0.28271
H          4.94666        11.00620        -0.42609
H          2.44631        10.98427        -0.43999
H         -0.03570        10.94144        -0.53115
H         -2.50064        10.85881        -0.80993
H         -4.96363        10.81891        -0.91527
H         -7.08221         9.60314        -0.74591
H         -8.31835         7.51778        -0.34508
H         -9.70221         5.46192         0.36132
H        -10.88356         3.36747         0.07303
H        -12.11279         1.23931        -0.08747
H        -12.10093        -1.23539        -0.16616
H        -10.84599        -3.35658        -0.05557
H         -9.59169        -5.44645         0.22439
H         -8.37545        -7.50698         0.56050
H         -6.88090        -9.31153         1.66658
H         -4.73607       -10.45189         1.92615
H         -2.36718       -10.84882         1.00215
H          0.03755       -11.07341         0.19767
H          2.45935       -11.06215         0.13462
H          4.99089       -11.03443         0.36094
H          7.02580        -9.72892         0.70856
H          8.34203        -7.64571         0.35803
H          9.61106        -5.54825         0.25454
H         10.89370        -3.38412         0.39605
