         276
 CSIRO Nanostructure Databank - Neutral Graphene Oxide Data Set
C        -10.97424         0.78761         0.54260
C         -9.78259         1.44779         1.04226
C         -8.61932         0.60939         1.54882
C         -7.28203         1.23183         1.06609
C         -5.97940         0.48513         1.31508
C         -4.64996         1.29694         1.23688
C         -3.14525         0.74536         1.31211
C         -2.15150         1.45053         0.40152
C         -0.73610         0.78971         0.33252
C          0.04627         1.31701        -0.89982
C          1.49483         0.69685        -0.88759
C          2.62131         1.49731        -1.58137
C          3.90776         0.74032        -1.75543
C          5.21609         1.45734        -1.53232
C          6.38959         0.73445        -0.91934
C          7.18871         1.58504         0.07104
C          8.37033         0.77954         0.65041
C          9.20106         1.60385         1.65493
C         10.39185         0.75254         2.04438
C         -9.70642         2.80230         1.12145
C         -8.43898         3.46553         1.60557
C         -7.24272         2.71760         0.99719
C         -5.93987         3.41900         0.86006
C         -4.75062         2.75086         0.83274
C         -3.46089         3.58427         0.66752
C         -2.24273         2.76481         0.10400
C         -0.98755         3.59802        -0.16267
C          0.09775         2.83109        -0.94719
C          1.34057         3.60386        -1.28665
C          2.62395         2.86517        -1.48954
C          3.88645         3.63606        -1.24265
C          5.21684         2.96842        -1.41974
C          6.48210         3.72906        -1.12622
C          7.69789         2.88825        -0.66575
C          8.66993         3.63707         0.24459
C          9.52727         2.96837         1.09687
C         -8.39758         4.96023         1.43490
C         -7.21525         5.63731         1.20859
C         -6.06272         4.88717         0.61804
C         -4.90838         5.64466         0.07512
C         -3.66629         4.82825        -0.30047
C         -2.38215         5.66194        -0.22713
C         -1.18036         4.96718        -0.85254
C          0.14167         5.72709        -0.78449
C          1.31317         5.07467        -1.02081
C          2.57189         5.88083        -1.37104
C          3.86257         5.09687        -0.92592
C          5.09985         5.90341        -0.69509
C          6.49048         5.29027        -0.99882
C          7.55594         5.83773        -0.04966
C          8.69327         5.05673         0.26258
C         -7.14357         7.05070         1.31317
C         -5.91654         7.79514         1.17145
C         -4.74108         7.07988         0.50807
C         -3.68349         7.93699        -0.22021
C         -2.36089         7.13507         0.00018
C         -1.07130         7.94666        -0.10566
C          0.03757         7.21375        -0.85708
C          1.28279         8.03159        -0.98298
C          2.52470         7.25081        -0.69878
C          3.73434         7.91506        -0.15961
C          5.02565         7.17474        -0.24093
C          6.20241         7.94651         0.33238
C          7.46659         7.14527         0.37604
C         -5.86907         9.27003         1.22835
C         -4.74770         9.96420         0.91886
C         -3.55752         9.34983         0.34376
C         -2.40319        10.03502         0.13528
C         -1.26143         9.39259        -0.63598
C          0.07085        10.12167        -0.50170
C          1.25326         9.48021        -0.63045
C          2.59852        10.17222        -0.70932
C          3.76878         9.44261         0.01333
C          5.09728         9.98885        -0.47807
C          6.23907         9.29630        -0.36036
C        -11.04310        -0.54656         0.29687
C         -9.92183        -1.44220         0.51530
C         -8.71815        -0.88453         1.18744
C         -7.44033        -1.65811         1.02569
C         -6.12645        -0.99118         1.12509
C         -5.04265        -1.85825         1.11997
C         -3.04329        -0.75028         1.11301
C         -2.11839        -1.45633         0.40778
C         -0.72186        -0.79954         0.40361
C          0.24201        -1.48815        -0.55213
C          1.36313        -0.78463        -1.24182
C          2.63449        -1.52688        -1.55067
C          3.90524        -0.76985        -1.68377
C          5.26854        -1.49234        -1.62177
C          6.36598        -0.76034        -0.80218
C          6.73411        -1.29771         0.60355
C          7.93259        -0.57663         1.32755
C          9.20925        -1.37187         1.51781
C         10.37496        -0.59739         1.93342
C         -9.93995        -2.72229         0.03201
C         -8.79052        -3.65142         0.10068
C         -7.45818        -3.07480         0.51016
C         -6.19417        -3.70273         0.02937
C         -4.96575        -3.07283         0.38203
C         -3.63447        -3.69505         0.11100
C         -2.27157        -2.95133         0.21491
C         -1.02015        -3.69026        -0.28536
C          0.30314        -2.97248        -0.38648
C          1.49555        -3.65089        -0.87382
C          2.77262        -2.86772        -0.82225
C          3.93641        -3.78100        -1.33972
C          5.25195        -3.00387        -1.28370
C          6.31833        -3.66581        -0.48262
C          6.76248        -2.93278         0.82387
C          8.03405        -3.55992         1.41266
C          9.21876        -2.73719         1.56687
C         -8.79890        -4.88470        -0.78005
C         -7.51394        -5.69301        -0.66399
C         -6.25593        -4.99853        -0.49298
C         -5.02010        -5.63454        -1.00182
C         -3.70317        -4.93951        -0.75116
C         -2.43778        -5.69748        -1.09125
C         -1.12814        -4.99522        -1.02120
C          0.13371        -5.78158        -1.29589
C          1.45873        -5.08012        -1.20063
C          2.69868        -5.90124        -0.97214
C          3.85944        -5.07405        -0.43273
C          5.12588        -5.88929        -0.31599
C          6.28318        -5.16860        -0.42361
C          7.04149        -5.90869         1.91283
C          8.09685        -4.86518         1.85899
C         -7.53900        -7.04257        -0.83835
C         -6.33050        -7.92248        -1.04437
C         -5.01791        -7.12953        -1.25408
C         -3.73040        -7.88834        -1.09608
C         -2.41708        -7.18345        -1.03427
C         -1.26811        -7.90457        -1.00370
C          0.10707        -7.32224        -1.26841
C          1.13496        -7.83782        -0.23091
C          2.54049        -7.31030        -0.51780
C          3.65395        -7.93019         0.27364
C          4.98241        -7.23523         0.34226
C          6.23522        -8.04570         0.70348
C          7.28605        -7.19327         1.43399
C         -6.15171        -8.99211         0.02304
C         -4.98628        -9.65221         0.18197
C         -3.74400        -9.24114        -0.47216
C         -2.57867        -9.92300        -0.33558
C         -1.29896        -9.42786        -0.97573
C         -0.04810       -10.02626        -0.34461
C          1.10763        -9.34999        -0.10162
C          2.31035       -10.00732         0.40518
C          3.51028        -9.37098         0.59678
C          4.66396        -9.97324         1.25187
C          5.85428        -9.34529         1.39242
O          0.78316        -5.29341        -2.50376
O         -3.88056         7.96395        -1.57874
O         -0.10052        -3.69751         0.84074
O         -2.80468        -3.77111         1.30370
O         -2.95617         3.89049         1.87872
O          6.54336        -3.43671        -1.90507
O         -4.74271         7.17221         1.91779
O         -3.96455        -1.45266         1.87798
O          2.64975         6.01166        -2.72669
O          2.91150        -6.99258        -1.89854
O          0.49217         7.71124        -2.15324
O          6.83714         5.85015        -2.20812
O          3.16144        -1.35274        -2.85845
O         -0.19645         1.30247         1.50188
O         -2.26868         6.23039         1.11871
O         -4.32648        -7.63680        -2.42924
O         -1.87991        -5.00980        -2.26839
O         -8.23171        -3.94487         1.41038
O          5.70871        -3.20067         1.70694
O         -5.31799         1.00623         2.51262
O         -8.19007        -1.64527         2.31742
O          0.32807         3.24263        -2.30919
O         -7.47452         1.89311        -0.21648
O          4.78174         1.11849        -2.88081
O          4.02540        -7.16202         1.48211
O          0.20086        -1.22311        -1.99026
O          7.26837        -0.09934        -1.73588
O          3.69367         4.16641         0.15813
O         -6.00484         5.32999        -0.82489
O         -4.43257        -4.74696        -2.00736
O          2.77506         7.25815         0.75266
O          6.08251         3.45166        -2.49772
O          7.49316        -5.73087        -0.72737
H          8.09809        -5.02947        -1.04604
O          2.03382         0.67514         0.44851
H          1.36745         1.02184         1.11354
O          2.96025        10.23520        -2.09571
H          2.14678        10.28354        -2.63956
O          7.47800        -0.34914         2.67925
H          6.48187        -0.35451         2.62157
O          0.47725        -7.82247        -2.56456
H          1.01098        -7.12011        -3.01352
O         -8.65977         0.69251         2.99051
H         -8.30100        -0.16358         3.33750
O         -0.20966        -1.13896         1.69766
H         -0.22125        -0.29337         2.22484
O          8.43940         2.52440        -1.83255
H          7.86320         2.69855        -2.61517
O         -1.63406         9.37691        -2.02048
H         -2.50832         8.89163        -2.09917
O         -1.31412        -9.88584        -2.35502
H         -0.62894        -9.35924        -2.83312
O          5.69195        -1.48376        -3.00099
H          5.59940        -0.56087        -3.33921
O         -2.71501         1.03056         2.65124
H         -3.47184         0.86195         3.25549
O          5.54052        -0.84762         1.28318
H          5.13515        -1.67700         1.68983
O          3.41467        -4.71887         0.90113
H          3.68208        -5.46497         1.50312
O          0.73228        -7.26001         1.03598
H          1.35882        -7.56000         1.72912
O         -0.58255         8.11558         1.24213
H         -0.79972         7.29236         1.74161
O          6.84890        -8.46099        -0.53951
H          7.20953        -7.65542        -0.97550
O         -8.94303        -4.44885        -2.13584
H         -8.82761        -5.21890        -2.72982
O         -3.88441         4.26669        -1.60176
H         -4.80231         4.51868        -1.87870
O         -6.63260        -8.64438        -2.26373
H         -5.78614        -8.69929        -2.77290
O          3.61744        -4.16944        -2.67311
H          3.79819        -3.40588        -3.26768
O          8.45495         1.97916         2.84861
H          8.16306         1.12179         3.26598
O         -0.70749         0.95091        -2.05130
H         -0.42326         1.53329        -2.79415
O          9.34145         0.48663        -0.36329
H          8.88200         0.33144        -1.22464
O          6.31210         1.99738         1.12620
H          6.86410         2.19039         1.92778
O         -0.45885         3.90184         1.12800
H         -0.44250         3.05039         1.64990
O          3.66262         9.69962         1.43642
H          2.99826         9.05988         1.78578
O          5.93425         8.18392         1.74051
H          5.19047         8.84096         1.81266
O          2.97117        -2.32509         0.50346
H          3.13996        -3.06383         1.14332
O         -1.44679         4.88007        -2.25441
H         -2.37365         4.57366        -2.40050
O          5.85484        -5.61741         2.44104
H          5.73269        -4.61367         2.45325
O         -8.33419         3.34054         3.05184
H         -8.49956         2.39339         3.30011
H         11.27169        -1.16995         2.22099
H         11.29061         1.25838         2.42956
H         10.23790         3.57564         1.68585
H          9.57559         5.56376         0.68935
H          8.24346         7.52228         1.06387
H          7.19287         9.70389        -0.72600
H          5.09809        10.98011        -0.95486
H          2.52039        11.21428        -0.28522
H          0.05377        11.20863        -0.31794
H         -2.31639        11.08565         0.45805
H         -4.73603        11.05615         1.05949
H         -6.76309         9.79326         1.59756
H         -8.07642         7.60965         1.48824
H         -9.27594         5.52327         1.78890
H        -10.55766         3.42285         0.80151
H        -11.84273         1.42460         0.31827
H        -11.96336        -0.97806        -0.12301
H        -10.82719        -3.06401        -0.52275
H         -9.67438        -5.54087        -0.50202
H         -8.51023        -7.54307        -0.97969
H         -7.05221        -9.34441         0.54756
H         -4.93339       -10.51698         0.86145
H         -2.56717       -10.88559         0.19936
H         -0.05662       -11.12115        -0.21576
H          2.22913       -11.07763         0.65255
H          4.52430       -10.97026         1.69902
H          6.66145        -9.86113         1.93445
H          8.31622        -7.39254         1.09596
H          9.10304        -5.22532         2.14126
H         10.15131        -3.24846         1.86020
