         344
 CSIRO Nanostructure Databank - Neutral Graphene Oxide Data Set
C          1.28830         3.44664         0.01814
C          0.09387         4.12094         0.02947
C          1.19950         6.27079        -0.38051
C          0.05165         5.53026        -0.16549
C          1.17172         7.72933        -0.52285
C         -0.04231         8.44882        -0.47863
C          1.13916        10.55757        -0.67143
C         -0.06013         9.83139        -0.61231
C          1.08228        12.04957        -0.91054
C          0.15513        12.75602         0.05849
C          1.09818        14.87970        -0.77472
C          0.15757        14.09064         0.11286
C          1.17180        16.33365        -0.37548
C         -0.01382        17.03578        -0.17736
C          1.18346        19.14839         0.04817
C         -0.01310        18.42369         0.02572
C          1.17571        20.67486         0.03391
C         -0.07188        21.36925         0.51299
C          1.16464        23.49130         0.66589
C         -0.05219        22.71551         0.70026
C          1.18511        24.88660         0.56960
C         -0.02222        25.66836         0.46203
C          1.24586        27.74861         0.61088
C          0.00549        27.03479         0.48426
C          1.26339        29.19113         0.67950
C          3.73412         3.47427        -0.18121
C          2.51496         4.14402        -0.21996
C          3.65172         6.26984        -0.70839
C          2.48301         5.58592        -0.44544
C          3.65070         7.73354        -1.04728
C          2.38131         8.45143        -0.65504
C          3.62118        10.62392        -0.51209
C          2.35648         9.86128        -0.66108
C          3.63862        12.04826        -0.82695
C          2.43478        12.76039        -0.89921
C          3.67677        14.90483        -0.77380
C          2.43494        14.17009        -0.85493
C          3.62970        16.33785        -0.61584
C          2.41465        17.03205        -0.36180
C          3.67313        19.16089        -0.09454
C          2.40628        18.45073        -0.12775
C          3.67582        20.54721         0.43824
C          2.40522        21.26735         0.70753
C          3.70278        23.46178         0.55963
C          2.43975        22.77006         1.05454
C          3.68037        24.90087         0.44188
C          2.44983        25.60356         0.56422
C          3.75447        27.73659         0.87473
C          2.44206        27.02827         0.63201
C          3.70998        29.23695         0.67603
C          2.43401        29.89968         0.69897
C          6.16965         3.49728        -0.23017
C          4.96154         4.13639        -0.44506
C          6.18520         6.31953        -0.77167
C          4.92363         5.52788        -1.03517
C          6.17182         7.71813        -0.70613
C          4.93969         8.42587        -0.67762
C          6.20209        10.62615        -0.59218
C          4.93854         9.86208        -0.45229
C          6.19591        12.00953        -0.68497
C          4.93925        12.74569        -1.11899
C          6.22406        14.95272        -0.88742
C          4.90545        14.21657        -0.80599
C          6.09119        16.31592        -0.16421
C          4.90633        17.10022        -0.81092
C          6.15458        19.28739        -0.49455
C          4.85632        18.53089        -0.35900
C          6.11205        20.65968         0.13051
C          4.93648        21.31404         0.37424
C          6.08925        23.47756        -0.18225
C          4.88811        22.76487         0.40589
C          6.11570        24.95592         0.07876
C          4.91110        25.61829         0.22266
C          6.18212        27.80209         0.24417
C          4.85709        27.11489         0.02315
C          6.17103        29.22913         0.48931
C          4.89925        29.91680         0.57224
C          8.60026         3.49412        -0.06860
C          7.42693         4.15303        -0.36937
C          8.69367         6.32105        -0.47309
C          7.47629         5.56103        -0.93283
C          8.66698         7.75392        -0.45451
C          7.43000         8.46377        -0.55572
C          8.65689        10.60351        -0.38878
C          7.42861         9.87819        -0.50428
C          8.65198        12.03029        -0.33953
C          7.42795        12.74705        -0.52394
C          8.62248        14.84996        -0.09956
C          7.43325        14.15829        -0.42873
C          8.55774        16.27826         0.42387
C          7.37498        17.10190        -0.09058
C          8.59777        19.23011         0.07901
C          7.37368        18.47304        -0.08286
C          8.62695        20.61937         0.08285
C          7.38928        21.36921         0.47029
C          8.58904        23.50771        -0.02155
C          7.40322        22.81299         0.07919
C          8.57731        24.95593        -0.10812
C          7.37690        25.65673        -0.01635
C          8.64101        27.79451         0.29851
C          7.36986        27.10937         0.11975
C          8.63220        29.23757         0.56103
C          7.37136        29.91119         0.62966
C         11.04705         3.48680         0.17539
C          9.86572         4.17158        -0.06172
C         11.10561         6.32503        -0.02141
C          9.86832         5.62136        -0.20126
C         11.11957         7.74214        -0.11134
C          9.88838         8.46925        -0.29175
C         11.10088        10.63377        -0.13027
C          9.88343         9.89630        -0.29027
C         11.09822        12.01211         0.04459
C          9.86670        12.74152        -0.07804
C         11.02591        14.88256         0.67924
C          9.83335        14.15260         0.07103
C         11.06809        16.35645         0.35801
C          9.87094        17.01848         0.29604
C         11.13011        19.22524         0.34358
C          9.83141        18.48119         0.37761
C         11.09374        20.62490        -0.15955
C          9.83991        21.38038        -0.01433
C         11.11319        23.51262        -0.05014
C          9.85593        22.77654        -0.02462
C         11.12999        24.92790         0.04425
C          9.87453        25.70244        -0.32467
C         11.05355        27.77874         0.76258
C          9.82526        27.10834         0.20750
C         11.09164        29.26645         0.45272
C          9.82744        29.94453         0.58493
C         13.49851         3.44876         0.37618
C         12.30844         4.15809         0.27456
C         13.53690         6.31479         0.28377
C         12.31905         5.61623         0.20182
C         13.56522         7.71523         0.11312
C         12.36404         8.42064        -0.06739
C         13.65880        10.62589        -0.06980
C         12.37445         9.88719        -0.25500
C         13.63727        12.06140         0.22853
C         12.33280        12.70470         0.60860
C         13.55568        14.89262         0.38438
C         12.35087        14.19707         0.45740
C         13.57825        16.34398         0.33697
C         12.34805        17.05453         0.32155
C         13.61050        19.16624         0.26068
C         12.38872        18.46398         0.24547
C         13.59306        20.64271         0.30507
C         12.38360        21.36349        -0.19080
C         13.58232        23.52423        -0.09189
C         12.35560        22.83262        -0.09044
C         13.59885        24.91354         0.06833
C         12.36085        25.59450         0.21808
C         13.61888        27.80801         0.18452
C         12.37038        27.05056         0.50478
C         13.49467        29.23712        -0.29212
C         12.25197        29.93668         0.18947
C         15.95292         3.41814         0.35500
C         14.77832         4.10729         0.43661
C         16.07191         6.29149         0.49126
C         14.76761         5.58311         0.76241
C         16.09980         7.69557         0.40429
C         14.88747         8.41255        -0.12291
C         16.08155        10.56727         0.37735
C         14.88701         9.88037         0.18211
C         16.09632        12.02375         0.30806
C         14.83150        12.74767         0.27236
C         16.03624        14.90603         0.20525
C         14.82922        14.20054         0.31599
C         16.06200        16.32775         0.22232
C         14.82113        17.04715         0.29238
C         16.09976        19.20805         0.26803
C         14.83896        18.47692         0.27925
C         16.11996        20.60550         0.20509
C         14.88374        21.39246         0.25055
C         16.12859        23.52078        -0.36572
C         14.83106        22.74958        -0.44682
C         16.12581        24.94028        -0.45523
C         14.93402        25.63356         0.17876
C         16.02286        27.79716        -0.40979
C         14.85964        27.08560        -0.19090
C         15.97311        29.25714        -0.19474
C         14.78971        29.94339        -0.03805
C         18.45951         3.39152         0.82751
C         17.28462         4.09893         0.19933
C         18.51155         6.25502         0.66227
C         17.26872         5.56998         0.53982
C         18.54931         7.68130         0.70708
C         17.31505         8.41355         0.55583
C         18.52386        10.59997         0.81380
C         17.29773         9.83872         0.56798
C         18.54664        12.03107         0.46238
C         17.30061        12.71340         0.27693
C         18.57673        14.89244         0.16250
C         17.30126        14.15805        -0.16209
C         18.57894        16.30251         0.17419
C         17.31318        17.04889         0.18757
C         18.62536        19.20791         0.44399
C         17.32587        18.44262         0.25149
C         18.53203        20.55936        -0.31171
C         17.39475        21.41047         0.24166
C         18.53285        23.46748        -0.71455
C         17.32290        22.79994        -0.37110
C         18.47019        24.85080        -1.11147
C         17.28914        25.65610        -0.82238
C         18.40568        27.97983        -0.93368
C         17.27822        27.13250        -0.75928
C         18.39617        29.34958        -0.43408
C         17.21325        29.95042        -0.04612
C         19.61880         4.05693         1.02151
C         20.93370         6.17617         0.92448
C         19.71445         5.49967         0.83657
C         20.98026         7.57637         0.86040
C         19.80917         8.33971         0.78378
C         21.03098        10.58355         0.44098
C         19.85724         9.82475         0.87339
C         20.98851        11.93972         0.29655
C         19.76952        12.70441         0.36599
C         21.00345        14.87320         0.34479
C         19.78630        14.16212         0.26377
C         21.02218        16.25412         0.24850
C         19.82488        16.99331         0.16113
C         20.98846        19.14887        -0.27631
C         19.85723        18.43920         0.03112
C         20.99313        20.58048        -0.41016
C         19.83484        21.31536        -0.41619
C         20.90518        23.34767        -1.31992
C         19.77145        22.72858        -0.78224
C         20.81461        24.62721        -1.87194
C         19.62195        25.33783        -1.78553
C         20.72871        28.42979        -1.69938
C         19.59998        27.64083        -1.65717
C         20.75527        29.67039        -1.00109
C         19.61105        30.12431        -0.40607
O          4.23560        10.28973         0.80105
O         10.45721        19.03135         1.62012
O         19.57903        26.53172        -2.50838
O          3.00180        20.49750         1.78318
O         14.14118        21.27132         1.51615
O         19.20499        10.31034         2.08715
O         13.30381        27.47863         1.58598
O         13.11771        10.31603        -1.47984
O         11.82451        20.80422        -1.43257
O          8.33490        16.10427         1.83155
O          0.50144        14.88351        -2.13041
H          1.10283        15.39318        -2.71354
O          7.43779        21.38074         1.95176
H          7.68583        20.47913         2.25284
O         17.64817        21.70728         1.65682
H         16.85471        22.15906         2.01794
O         12.21385        12.48765         2.06906
H         11.61321        13.20282         2.41036
O          6.49435        15.14659        -2.30819
H          6.30510        14.28269        -2.74718
O         18.79080        19.37067         1.87421
H         18.27086        20.15952         2.16526
O          9.99343        25.85208        -1.79523
H          9.88553        24.95982        -2.18959
O          5.75326        16.03690         1.20361
H          6.62407        15.98195         1.71143
O          4.48228        27.33801        -1.36973
H          5.23347        27.05407        -1.93183
O         13.34311        29.10077        -1.75230
H         13.36787        30.00119        -2.13876
O         17.55225         4.05569        -1.25550
H         18.41789         4.49257        -1.40541
O         17.28240        14.10262        -1.64041
H         16.48318        13.59822        -1.90490
O          5.05920        12.71940        -2.62940
H          4.19510        13.02164        -2.98678
O         18.14004        20.25358        -1.67679
H         18.89618        19.81194        -2.11722
O         15.06141         8.36818        -1.59620
H         14.36510         8.97216        -1.96373
O          2.47390        22.87342         2.50672
H          2.93188        22.06030         2.83001
O          4.89416         5.33829        -2.51016
H          4.59762         6.21070        -2.88096
O         10.73874        14.81459         2.12624
H          9.84430        15.28011         2.24055
O          7.63822         5.40457        -2.38979
H          6.74537         5.15604        -2.74184
O         10.84164        27.71518         2.21111
H         11.70582        27.93601         2.62809
O          6.33717        19.55719        -1.92771
H          6.27039        18.68145        -2.38287
O          3.64059         7.78417        -2.55515
H          2.71578         7.61346        -2.83996
O         14.66201         5.63623         2.23492
H         13.85607         5.13624         2.48643
O          4.11994        27.49320         2.26108
H          3.39105        27.81747         2.82955
O         15.26380        25.60807         1.61672
H         14.61646        26.21793         2.05204
O         14.71617        22.43907        -1.87480
H         13.82328        22.06769        -2.04614
O          5.89173        23.36850        -1.65361
H          5.02161        23.77403        -1.85873
O          1.34075        21.03959        -1.38131
H          0.49871        20.84137        -1.84240
O          5.13734        17.16536        -2.26125
H          4.35840        17.61307        -2.65423
O          0.53046        12.17659        -2.24997
H          0.35366        13.14093        -2.40373
H          1.32062         2.36006         0.18291
H         -0.84696         3.58055         0.20283
H         -0.93010         6.02109        -0.12982
H         -0.99744         7.91583        -0.38334
H         -1.02100        10.36273        -0.65184
H         -0.52337        12.16515         0.69209
H         -0.50809        14.63259         0.80088
H         -0.97493        16.50493        -0.22419
H         -0.97831        18.93388         0.14600
H         -1.02769        20.82982         0.57317
H         -1.00444        23.23162         0.89857
H         -0.99114        25.15425         0.39848
H         -0.93163        27.60806         0.42867
H          0.30004        29.72209         0.67194
H          3.75796         2.41295         0.11056
H          2.41269        31.00008         0.68918
H          6.16409         2.45704         0.13395
H          4.90129        31.01823         0.54932
H          8.56860         2.43430         0.22967
H          7.36205        30.99587         0.81625
H         11.02506         2.39131         0.27886
H          9.80992        31.04547         0.58081
H         13.47531         2.34934         0.32273
H         12.22516        31.03545         0.09675
H         15.92915         2.32722         0.20119
H         14.80335        31.02182         0.17996
H         18.40471         2.30411         0.98571
H         17.20841        30.99814         0.28767
H         20.51647         3.52615         1.37399
H         21.86471         5.60780         1.06123
H         21.95475         8.07923         0.93345
H         21.95518        10.04110         0.19395
H         21.91437        12.45517         0.00589
H         21.95391        14.33764         0.46670
H         21.98689        16.77772         0.28338
H         21.93817        18.62786        -0.46639
H         21.96856        21.06340        -0.56250
H         21.85622        22.80513        -1.39600
H         21.66837        25.06983        -2.40052
H         21.58746        28.11583        -2.30612
H         21.67026        30.27811        -1.00336
H         19.57694        31.11971         0.05885
