         618
 CSIRO Nanostructure Databank - Neutral Graphene Oxide Data Set
C         23.54494        70.28550        -1.45471
C         23.51969        71.71426        -1.40912
C         22.51793        72.43824        -2.11005
C         23.71366        74.51158        -1.75224
C         22.60644        73.82074        -2.24852
C         26.01398        66.08282        -0.97524
C         25.85478        67.44739        -0.65757
C         24.77722        68.17710        -1.20043
C         25.57186        70.21175        -0.02287
C         24.60546        69.54889        -0.92615
C         25.54269        71.72274         0.07240
C         24.58157        72.43022        -0.79469
C         25.93368        74.47575        -0.65303
C         24.72307        73.82358        -1.03682
C         28.22990        61.66047        -0.50924
C         28.18504        63.01826        -0.22995
C         27.15741        63.86812        -0.94080
C         27.99089        65.84978         0.42630
C         27.08055        65.30435        -0.47091
C         27.87057        67.26436         0.83490
C         26.84487        68.10863         0.17321
C         27.89827        70.21591         0.96629
C         26.78711        69.47703         0.40164
C         27.99242        71.61156         0.83898
C         26.73674        72.47205         0.67244
C         28.23452        74.39711         0.09211
C         26.98058        73.79828        -0.01814
C         30.49284        57.30415        -0.11942
C         30.34950        58.65119         0.33389
C         29.26257        59.42365        -0.13994
C         30.10278        61.38653         1.05150
C         29.17794        60.81031         0.13170
C         30.20393        62.81811         1.16394
C         29.16102        63.60777         0.62197
C         30.22115        65.70231         1.76249
C         29.03042        65.01611         1.04828
C         30.28766        67.23494         2.04601
C         28.99910        67.95242         1.56552
C         30.40888        70.13889         1.52012
C         29.04358        69.45839         1.51671
C         30.45698        71.55542         1.13048
C         29.26199        72.27496         0.94496
C         30.58100        74.35553         0.67101
C         29.37128        73.69858         0.59323
C         33.01355        53.08501        -0.33881
C         32.81116        54.33500         0.26723
C         31.66218        55.10416        -0.06954
C         32.46111        56.94388         1.31804
C         31.52115        56.44253         0.34612
C         32.62726        58.46142         1.31072
C         31.26162        59.18916         1.32406
C         32.93394        61.38495         1.03834
C         30.95009        60.48925         1.80940
C         32.70822        62.79595         1.51713
C         31.43712        63.52487         1.52872
C         32.74350        65.65707         1.77868
C         31.45905        64.90848         1.71970
C         32.83168        67.16942         1.67101
C         31.57073        67.94034         1.60295
C         32.88607        69.96453         1.03959
C         31.63579        69.30346         1.41555
C         32.89289        71.40409         0.81748
C         31.73820        72.17222         0.98153
C         33.02164        74.28396         0.46706
C         31.82975        73.67545         1.13766
C         35.70244        49.10316        -1.23149
C         35.52430        50.35164        -0.54276
C         34.35986        51.09757        -0.71367
C         35.23660        52.91536         0.73441
C         34.19239        52.36122        -0.09010
C         35.08471        54.20413         1.36294
C         33.80023        54.83903         1.19667
C         35.24033        57.09497         2.53035
C         33.40840        56.06733         1.81948
C         35.15282        58.38071         2.12321
C         33.83079        59.09031         2.05034
C         35.24329        61.29470         1.88769
C         33.92291        60.56629         1.86778
C         35.22013        62.76045         1.62844
C         33.91117        63.44836         1.51090
C         35.20028        65.56046         0.96494
C         33.91706        64.89174         1.27619
C         35.27867        67.00996         1.19172
C         34.11536        67.81990         1.25468
C         35.22941        69.85477         0.17379
C         34.07700        69.22442         0.93819
C         35.17629        71.34062        -0.06097
C         34.09504        72.07919         0.32275
C         35.28368        74.15327        -0.45519
C         34.10984        73.53097         0.08766
C         38.26460        45.04871        -2.20977
C         38.12477        46.27259        -1.52737
C         36.96758        47.05968        -1.69766
C         37.72471        48.60303         0.14382
C         36.79297        48.27532        -1.00531
C         37.87957        50.13122         0.31055
C         36.56454        50.88301         0.29571
C         37.47861        52.63856         1.85027
C         36.42952        52.13415         0.88600
C         37.51805        54.14686         1.90820
C         36.31185        54.83774         1.90567
C         37.66659        56.97954         2.08710
C         36.45360        56.22857         2.58102
C         37.64270        58.31445         1.82278
C         36.45655        59.16045         2.18904
C         37.61402        61.19282         1.19537
C         36.47046        60.54016         1.58196
C         37.63573        62.62599         0.94425
C         36.45377        63.39376         1.11317
C         37.65893        65.42624         0.49801
C         36.45892        64.77505         0.88525
C         37.71530        66.86597         0.60290
C         36.61737        67.49230         1.19112
C         37.72093        69.94696         0.03587
C         36.61103        69.59950         0.72044
C         37.66732        71.19416        -0.75527
C         36.36161        71.95786        -0.70797
C         37.66570        74.03717        -1.14259
C         36.44115        73.43230        -0.78998
C         40.92170        41.13095        -3.56561
C         40.78906        42.32716        -2.83483
C         39.58721        43.07198        -2.84854
C         40.58252        44.81651        -1.40913
C         39.45609        44.29252        -2.15545
C         40.47729        46.05513        -0.73252
C         39.23093        46.78619        -0.72347
C         40.22894        48.56105         0.68423
C         39.09829        47.96724        -0.00150
C         40.12688        49.79314         1.33330
C         38.78485        50.47479         1.50079
C         39.98536        52.60532         2.28939
C         38.81895        51.96844         1.68357
C         40.03031        54.08629         2.18934
C         38.81375        54.80634         2.07562
C         40.13973        56.88433         1.87124
C         38.89914        56.22377         2.02458
C         40.19980        58.36643         1.82298
C         38.90052        59.08799         1.66468
C         40.13494        61.13390         0.77967
C         38.83249        60.36386         0.84606
C         40.08981        62.51525         0.44680
C         38.83634        63.27052         0.50834
C         40.01204        65.33521        -0.40137
C         38.83089        64.66301         0.26340
C         40.11837        66.85179        -0.24390
C         38.81401        67.62623        -0.14584
C         40.20714        69.80630        -0.29449
C         38.96660        69.12889         0.17240
C         40.14285        71.22545        -0.78101
C         38.93833        71.92418        -0.89962
C         40.13404        73.98539        -1.47478
C         38.90965        73.32703        -1.22009
C         43.48069        37.06381        -4.57586
C         43.43388        38.38643        -4.21253
C         42.21878        39.15026        -4.23119
C         43.26788        40.88354        -2.80168
C         42.13317        40.39548        -3.59446
C         43.11289        42.09585        -2.01453
C         41.91470        42.82233        -2.06037
C         42.91900        44.60119        -0.67301
C         41.79915        44.07696        -1.37374
C         42.83183        45.87421        -0.03344
C         41.60607        46.59702        -0.04965
C         42.66691        48.42618         1.17063
C         41.50886        47.86421         0.61681
C         42.60487        49.67993         1.93989
C         41.27009        50.36164         2.06735
C         42.56970        52.54118         2.58248
C         41.24661        51.80690         2.49633
C         42.53936        54.02300         2.32439
C         41.27001        54.74931         2.04514
C         42.49103        56.72971         0.97034
C         41.32141        56.13333         1.74550
C         42.64270        58.23621         1.02459
C         41.51841        59.09423         1.56170
C         42.56949        61.08205         0.49673
C         41.35563        60.42944         0.84115
C         42.52244        62.46344         0.18535
C         41.30898        63.21013         0.18318
C         42.50695        65.32929        -0.36533
C         41.31331        64.61765        -0.15066
C         42.52152        66.71941        -0.76575
C         41.26757        67.48710        -0.69486
C         42.17958        69.63005        -1.63341
C         41.27242        68.95142        -0.86570
C         42.47030        71.05230        -1.54457
C         41.33288        71.86245        -1.23286
C         42.60496        73.82247        -1.90938
C         41.35384        73.26102        -1.53290
C         45.98598        34.21243        -4.86647
C         44.80385        34.89575        -4.96873
C         45.95325        36.89922        -4.07761
C         44.63172        36.17052        -4.18710
C         45.94874        38.35253        -3.73170
C         44.68665        39.18963        -3.89543
C         45.51905        40.48924        -1.77980
C         44.46055        40.20291        -2.80760
C         45.48278        41.91191        -1.28950
C         44.25236        42.61814        -1.30671
C         45.26622        44.38147         0.08003
C         44.14801        43.87538        -0.64454
C         45.18228        45.65894         0.75001
C         43.98159        46.41954         0.61814
C         45.07579        48.32780         1.72215
C         43.91086        47.73332         1.15147
C         45.07132        49.72966         2.07015
C         43.86530        50.43736         2.12339
C         45.09983        52.53640         2.44182
C         43.87285        51.83410         2.37900
C         45.09895        53.98126         2.27574
C         43.81714        54.61220         1.82993
C         45.10845        56.69604         1.09211
C         43.79846        55.96638         1.21527
C         45.09510        58.10358         0.56356
C         43.80208        58.86697         0.65383
C         45.04183        61.01263         0.42030
C         43.82942        60.33200         0.52612
C         45.06807        62.44258         0.06284
C         43.76118        63.17390        -0.13629
C         44.96671        65.32998        -0.15320
C         43.76361        64.64976        -0.17595
C         45.01253        66.69119        -0.57731
C         43.78982        67.30363        -1.01513
C         45.03109        69.40929        -1.52692
C         43.96733        68.54954        -1.69879
C         45.00721        70.81640        -2.13275
C         43.72203        71.61264        -1.83031
C         45.02762        73.65282        -2.33982
C         43.77909        73.04323        -1.99611
C         47.12712        34.74263        -4.19214
C         48.30279        36.72971        -3.28440
C         47.15606        36.08125        -3.76665
C         48.28437        38.08935        -2.83632
C         47.06183        38.85185        -2.89825
C         48.02727        40.54627        -1.43329
C         46.90466        39.98589        -2.11081
C         47.90479        41.76649        -0.70285
C         46.61218        42.45453        -0.65328
C         47.58993        44.11185         0.92203
C         46.48231        43.67928         0.04795
C         47.46418        45.34522         1.76505
C         46.26820        46.18542         1.49208
C         47.34174        48.10190         2.65464
C         46.22989        47.53612         1.90973
C         47.25327        49.49927         3.02274
C         46.28278        50.36947         2.52924
C         47.58344        52.55528         2.64276
C         46.36679        51.83218         2.58382
C         47.53401        54.05283         2.61819
C         46.25779        54.71398         2.27097
C         47.49184        57.00007         2.02264
C         46.15977        56.23162         2.11916
C         47.51624        58.37589         1.41487
C         46.41712        58.87751         0.48856
C         47.51199        61.08108         0.55564
C         46.31735        60.37677         0.57611
C         47.50238        62.53837         0.47681
C         46.28204        63.21558         0.30737
C         47.47054        65.40849         0.04582
C         46.20168        64.71159         0.43910
C         47.49105        66.71299        -0.41683
C         46.23213        67.39600        -0.68922
C         47.43775        69.48561        -1.20001
C         46.23740        68.77884        -1.06997
C         47.43431        70.89765        -1.44511
C         46.27171        71.61260        -1.78852
C         47.46212        73.76720        -2.50964
C         46.27213        73.01255        -2.17442
C         49.40108        38.66087        -2.19960
C         50.45417        40.55545        -0.99274
C         49.31206        39.91818        -1.55317
C         50.34400        41.78306        -0.33727
C         49.05371        42.36541        -0.16609
C         50.16819        44.43101         0.93210
C         48.94749        43.69536         0.47774
C         50.08922        45.61363         1.85506
C         48.70545        45.91398         2.50130
C         50.42741        48.46782         3.04423
C         48.45987        47.33934         2.93053
C         50.31388        49.89961         2.84635
C         49.14894        50.62018         3.14472
C         50.08991        52.65533         2.29885
C         48.91757        51.95487         2.69990
C         50.02877        54.10184         2.04605
C         48.80923        54.85785         2.47534
C         49.97948        56.99681         1.93109
C         48.79963        56.30982         2.11658
C         50.01604        58.39453         1.49830
C         48.81401        59.03971         1.15325
C         50.00865        61.10877         0.65049
C         48.79569        60.39892         0.74750
C         49.96190        62.50607         0.08676
C         48.71695        63.24695         0.47072
C         50.01455        65.44259         0.17447
C         48.71683        64.71459         0.39275
C         49.97855        66.77625        -0.46150
C         48.74690        67.37267        -0.72201
C         49.97371        69.47107        -1.58263
C         48.70065        68.73864        -1.27918
C         49.96142        70.95326        -1.44308
C         48.71141        71.53807        -1.23485
C         50.03966        73.83984        -2.34371
C         48.71938        73.52671        -1.94516
C         51.52085        42.52942         0.08980
C         52.70527        44.61423         0.81813
C         51.46677        43.76438         0.65548
C         52.58978        45.48644         2.08041
C         51.26979        46.26381         2.15737
C         52.54102        48.38395         1.74038
C         51.39002        47.69539         2.45683
C         52.61255        49.87186         1.98910
C         51.41764        50.58769         2.27302
C         52.57905        52.71382         1.91791
C         51.34887        52.00533         2.15614
C         52.59762        54.13486         1.84675
C         51.30448        54.85728         1.83250
C         52.51189        57.02767         1.72010
C         51.29210        56.30689         2.27043
C         52.49950        58.51484         1.81671
C         51.22843        59.12856         1.38551
C         52.51638        61.15078         0.74149
C         51.24191        60.47574         0.96048
C         52.47248        62.49906         0.13631
C         51.23570        63.29024         0.24269
C         52.49273        65.40695        -0.04718
C         51.26663        64.65503         0.07592
C         52.42931        66.81944        -0.28986
C         51.23590        67.44861        -0.64859
C         52.44821        69.64897        -1.11804
C         51.29813        68.73828        -1.46289
C         52.44095        71.02080        -1.34413
C         51.17041        71.72341        -1.51145
C         52.46162        73.76803        -2.00470
C         51.18078        73.10992        -1.89893
C         53.83144        46.32922         2.20120
C         55.06731        48.44163         1.97589
C         53.85578        47.68693         2.01199
C         55.07920        49.84252         1.82301
C         53.81583        50.56559         1.85183
C         55.04417        52.71157         1.76381
C         53.81100        52.00241         1.85353
C         55.05227        54.13389         1.72365
C         53.80643        54.82729         1.75529
C         55.08887        57.01428         1.60930
C         53.80457        56.29298         1.56334
C         55.13384        58.50804         1.89310
C         53.80015        59.25478         1.70490
C         55.00256        61.20908         0.66868
C         53.75145        60.56503         1.01174
C         55.02058        62.57432         0.30414
C         53.76804        63.26902        -0.00719
C         54.96950        65.44445         0.00947
C         53.73772        64.74039        -0.00228
C         54.97790        66.89254        -0.12229
C         53.66986        67.65609        -0.06027
C         54.97573        69.69084        -0.92525
C         53.70435        68.91352        -0.91740
C         54.93410        71.14880        -1.11292
C         53.69839        71.77112        -1.34442
C         54.91435        74.01876        -1.62423
C         53.65462        73.17448        -1.66687
C         56.28352        50.57877         1.75851
C         57.49702        52.73820         1.69841
C         56.28847        51.99275         1.72045
C         57.50438        54.13439         1.68030
C         56.28665        54.85674         1.64686
C         57.54885        57.03137         1.47756
C         56.28194        56.31130         1.59891
C         57.54430        58.42112         1.19764
C         56.30347        59.15819         1.19865
C         57.48708        61.12017         0.30408
C         56.24085        60.47242         0.76766
C         57.48830        62.61468         0.09056
C         56.21569        63.33726         0.23277
C         57.47197        65.52566         0.32480
C         56.19355        64.73612         0.12304
C         57.44606        66.81423        -0.49078
C         56.15910        67.56905        -0.25373
C         57.45970        69.79068        -0.42322
C         56.17085        69.05054        -0.30863
C         57.42677        71.17853        -0.94257
C         56.19421        71.85335        -1.14835
C         57.41562        73.92000        -1.58151
C         56.21160        73.24903        -1.47436
C         58.83275        54.84840         1.80896
C         59.98925        57.00151         1.31003
C         58.79024        56.32875         1.50252
C         60.02556        58.40291         1.03602
C         58.77841        59.10377         0.93949
C         59.98201        61.19685         0.43032
C         58.78086        60.47618         0.58901
C         59.98474        62.62436         0.19573
C         58.76030        63.35351         0.15377
C         59.96292        65.46630        -0.07417
C         58.74883        64.74811         0.09123
C         59.94572        66.90334        -0.23880
C         58.71950        67.62218        -0.30810
C         59.94371        69.72177        -0.62085
C         58.72367        69.01597        -0.44489
C         59.90891        71.16597        -0.88608
C         58.66093        71.85408        -1.08276
C         59.88916        73.96546        -1.39911
C         58.66937        73.25941        -1.37995
C         61.22928        59.11296         0.84890
C         62.44599        61.23464         0.45751
C         61.23649        60.50379         0.58158
C         62.45828        62.62770         0.22570
C         61.20323        63.34101         0.11116
C         62.43325        65.47183        -0.26196
C         61.19697        64.75499        -0.07937
C         62.41403        66.85999        -0.44689
C         61.17689        67.60184        -0.39774
C         62.40724        69.74496        -0.99727
C         61.15398        69.00647        -0.60476
C         62.35277        71.19372        -0.58335
C         61.09561        71.89369        -0.92755
C         62.36049        74.00621        -1.13925
C         61.11567        73.31305        -1.13174
C         63.66526        63.35196         0.13305
C         64.91599        65.43334        -0.14276
C         63.69593        64.74819        -0.13153
C         65.01260        66.81412        -0.58295
C         63.66367        67.57202        -0.77892
C         64.88476        69.72912        -0.61355
C         63.70375        69.04745        -0.67122
C         64.95492        71.21909        -0.30055
C         63.62567        71.96099        -0.44707
C         64.81165        73.98685        -1.25743
C         63.60407        73.37291        -0.91121
C         66.20431        67.63439        -0.40593
C         67.35626        69.78209        -0.72570
C         66.16958        69.02429        -0.56713
C         67.33202        71.17227        -1.05635
C         66.11466        71.89767        -0.97428
C         67.24080        73.90486        -1.76829
C         66.05614        73.26883        -1.31216
C         68.50106        71.84913        -1.49554
C         68.44090        73.19687        -1.84678
O         27.84548        67.47515         2.31507
O         49.40929        47.85579         3.79968
O         46.32216        37.88108        -5.09182
O         36.79603        71.24178        -1.94379
O         34.08991        56.44493         2.98118
O         52.92553        56.64752         0.37807
O         41.78487        49.51375         3.16375
O         44.49211        62.64731        -1.30892
O         32.98282        66.44918         2.97180
O         40.36881        52.01795         3.64039
O         39.93455        69.57492         1.15095
O         53.10255        62.64012        -1.18402
O         64.36829        67.03379        -1.91486
O         39.56915        59.08153         2.96111
O         43.81962        54.75674         0.35834
O         53.04863        59.19545         2.99221
O         48.17506        50.00292         3.94416
O         29.13349        65.11440         2.51865
O         57.42743        61.67863        -1.05289
O         45.28924        56.93339        -0.33046
O         54.56200        68.89244        -2.10306
O         56.71916        69.69734         0.87582
O         24.89156        70.89720         1.09875
O         42.94298        68.92695        -2.57834
O         34.24505        65.20469        -0.13315
O         62.80292        71.62317         0.73964
O         49.20492        68.91494        -2.70339
O         32.74758        61.15331        -0.14686
O         35.38830        62.22153         3.01530
O         33.57317        59.98299         3.17942
O         50.44965        54.53249         0.69746
O         42.63080        53.50316         3.68286
O         47.17762        44.00222         2.32669
O         48.66971        72.82430        -0.70866
O         49.50395        44.78549        -0.36529
O         49.43415        65.39171         1.53322
O         29.61857        69.98214         2.74876
O         47.34397        58.21905         2.85119
O         48.26822        54.61468         3.80564
O         36.78052        68.73813         1.79563
O         44.34115        35.75979        -2.79882
H         43.54553        35.18741        -2.81722
O         45.13236        39.66806        -0.60453
H         44.27755        40.01640        -0.27142
O         46.97977        58.67307        -0.84082
H         46.59610        57.84105        -1.20532
O         25.86090        63.25857        -0.85926
H         25.59708        63.22933         0.08331
O         42.10725        56.48420        -0.41800
H         42.57368        55.66245        -0.70286
O         38.60476        59.87714        -0.51890
H         38.58394        60.65283        -1.11873
O         55.48029        58.60325         3.31299
H         54.63020        58.69156         3.80655
O         37.08692        48.01458         1.30153
H         37.54062        48.35688         2.10822
O         36.69464        55.93626         3.98402
H         35.86986        55.55148         4.34951
O         51.65572        68.27114        -2.80060
H         50.81011        68.20075        -3.30636
O         52.85718        45.44840        -0.33349
H         52.31578        46.26544        -0.21633
O         30.28130        67.34642         3.48026
H         29.41581        66.99057         3.78293
O         31.96767        73.91717         2.58764
H         31.19129        73.50978         3.02837
O         44.90045        40.01056        -5.08989
H         45.34405        39.42373        -5.74608
O         52.26173        48.21637         0.30268
H         52.98433        48.65925        -0.19198
O         54.97581        74.88321        -2.76798
H         55.05012        74.32490        -3.56878
O         45.50852        56.65536         3.35181
H         46.16407        56.60256         4.08009
O         35.19562        69.18104        -1.12413
H         35.77626        69.70002        -1.73863
O         42.04173        59.48882         2.87378
H         41.25815        59.69781         3.43734
O         45.03072        70.65605        -3.58530
H         44.25849        70.09266        -3.81798
O         26.36394        72.83199         2.03156
H         25.83316        72.07841         2.38136
O         38.29763        67.64064        -1.52065
H         38.41801        66.72991        -1.88524
O         38.62134        50.60875        -0.84867
H         38.06194        50.46589        -1.64157
O         49.85359        62.33308        -1.38295
H         50.74186        62.07636        -1.71693
O         57.43818        66.40997        -1.88983
H         57.09854        67.15143        -2.43334
O         62.39101        69.81221        -2.46539
H         62.51711        68.90146        -2.80899
O         57.48694        65.92649         1.72560
H         57.56172        65.12093         2.27797
O         39.71201        65.17093        -1.85805
H         40.53002        65.40255        -2.35039
O         31.28736        60.97425         3.02036
H         31.94409        60.39558         3.48328
O         48.82663        45.20290         3.76790
H         48.32210        44.35791         3.67036
O         46.06408        64.94458         1.90347
H         46.96626        64.92051         2.29240
O         59.83679        54.19843         1.01812
H         59.59510        54.29881         0.07475
O         51.42214        56.28899         3.71632
H         51.27459        57.19699         4.05588
O         33.13584        58.64509        -0.06289
H         32.39530        58.51175        -0.69363
O         52.55786        44.54819         3.18887
H         52.33876        45.04499         4.00484
O         36.64032        59.45017         3.61490
H         35.91952        60.05720         3.89518
O         65.30181        71.25817         1.12085
H         64.44739        71.22542         1.61258
O         36.99012        52.25655         3.18993
H         37.07672        51.27365         3.25283
O         38.23861        49.90913         2.75364
H         38.90031        50.11836         3.45455
O         53.52524        68.17358         1.30180
H         53.58936        67.41979         1.92516
H         23.81074        75.59447        -1.91269
H         26.10078        75.51057        -0.99005
H         28.37820        75.41780        -0.29483
H         30.62827        75.42513         0.41570
H         33.03311        75.37509         0.32347
H         35.29376        75.25087        -0.53671
H         37.69104        75.13136        -1.26102
H         40.13606        75.06668        -1.67681
H         42.66413        74.89758        -2.13635
H         45.01958        74.71673        -2.62252
H         47.35388        74.55917        -3.26664
H         50.21006        74.68569        -3.02751
H         52.46961        74.82664        -2.30533
H         54.82771        74.70038        -0.73075
H         57.41274        74.99522        -1.81400
H         59.88239        75.04869        -1.59136
H         62.36367        75.06860        -1.42805
H         64.79682        75.02897        -1.61124
H         67.20794        74.96774        -2.04706
H         22.77515        69.76616        -2.04473
H         21.67725        71.89010        -2.55851
H         21.82081        74.36683        -2.78906
H         25.27630        65.59688        -1.62922
H         24.05828        67.66356        -1.85521
H         27.50778        61.22939        -1.21724
H         27.42114        63.88241        -2.03615
H         29.75768        56.91362        -0.83918
H         28.53276        58.96231        -0.82096
H         32.25975        52.68059        -1.02957
H         30.92802        54.67041        -0.76449
H         34.93942        48.80426        -1.96701
H         33.54956        50.70799        -1.34739
H         37.42233        44.67597        -2.81207
H         36.20132        46.73656        -2.41929
H         40.06065        40.76077        -4.14276
H         38.73345        42.69579        -3.43229
H         42.55334        36.57298        -4.91770
H         41.30601        38.69434        -4.64586
H         46.07899        33.22097        -5.33474
H         43.94522        34.45838        -5.49993
H         48.02642        34.11835        -4.08867
H         49.23146        36.15223        -3.15664
H         50.35290        38.10946        -2.17670
H         51.44382        40.09321        -1.12367
H         52.50496        42.08890        -0.13534
H         53.61174        43.96107         0.89286
H         54.77564        45.78430         2.35923
H         56.02288        47.90664         2.08502
H         57.24230        50.03910         1.75819
H         58.45837        52.20356         1.71055
H         59.16451        54.73325         2.88056
H         60.93253        56.43758         1.35609
H         62.18776        58.57828         0.92792
H         63.40397        60.70292         0.56201
H         64.61987        62.81594         0.24327
H         65.82939        64.91683         0.18754
H         67.15942        67.13777        -0.17809
H         68.32178        69.25376        -0.74038
H         69.45196        71.30137        -1.56017
H         69.35062        73.70966        -2.18956
