         651
 CSIRO Nanostructure Databank - Neutral Graphene Oxide Data Set
C          5.77873        31.77589         0.13592
C          5.82008        33.11848         0.00693
C          8.26905        27.41750        -0.19844
C          8.21912        28.82018         0.04993
C          7.01571        29.52544         0.06457
C          8.26262        31.63674        -0.18281
C          7.03066        30.98377         0.44542
C          8.26859        33.12769         0.01364
C          7.08677        33.85901         0.00795
C          8.34847        35.99554        -0.19819
C          7.13345        35.27950        -0.09282
C          8.36642        37.40856        -0.29862
C         10.75640        23.09738        -0.23864
C         10.73345        24.59666        -0.08587
C          9.55190        25.29189        -0.32226
C         10.69817        27.40761         0.15981
C          9.48246        26.70548        -0.14505
C         10.66820        28.79773         0.43606
C          9.46776        29.51679         0.34702
C         10.69664        31.63693         0.54734
C          9.51278        30.94763         0.33540
C         10.81822        33.01374         0.02884
C          9.54807        33.79930        -0.17807
C         10.83256        35.90825        -0.15502
C          9.60763        35.26630        -0.16256
C         10.83011        37.34557        -0.48764
C          9.57583        38.12702        -0.44170
C         10.87326        40.25801        -0.44356
C          9.63655        39.52707        -0.47389
C         10.88850        41.69910        -0.38492
C         13.23724        18.88448         0.15415
C         13.16340        20.24682         0.48916
C         12.04103        21.01291         0.14489
C         13.11686        23.13631         0.72182
C         12.02522        22.43331         0.25897
C         13.10555        24.62785         0.89662
C         11.91513        25.29619         0.25958
C         13.16812        27.39780         0.53440
C         11.91568        26.69368         0.30549
C         13.16234        28.73359         0.85708
C         11.87522        29.43984         0.98206
C         13.12640        31.76020         1.52025
C         11.85571        30.96771         1.15813
C         13.31545        33.05328         0.73751
C         12.12019        33.74804         0.14024
C         13.26586        35.92591         0.39997
C         12.10262        35.22720         0.07522
C         13.23908        37.41075         0.36407
C         12.12409        38.09038        -0.35989
C         13.37394        40.23449        -0.36055
C         12.07964        39.55436        -0.30307
C         13.36506        41.74371        -0.50250
C         12.07054        42.44189        -0.33670
C         13.30929        44.58658        -0.12021
C         12.10945        43.84520        -0.12326
C         13.30930        45.97586         0.03739
C         15.79948        14.69763        -0.55666
C         15.73265        16.06053        -0.22736
C         14.51090        16.73379        -0.11452
C         15.60773        18.75134         0.71188
C         14.44147        18.12227         0.26676
C         15.60152        20.14976         1.14637
C         14.32367        20.92963         1.12159
C         15.61400        23.14309         0.69907
C         14.35694        22.46652         1.26504
C         15.63195        24.48222         0.38673
C         14.42163        25.29467         0.48636
C         15.61095        27.51046        -0.05159
C         14.42510        26.66292         0.38425
C         15.70550        28.81416         0.75394
C         14.42757        29.42816         1.19632
C         15.71510        31.65675         1.56995
C         14.40825        30.89939         1.53152
C         15.72340        33.19526         1.52635
C         14.47599        33.89208         1.11830
C         15.69848        36.02592         1.19522
C         14.46231        35.25026         0.88286
C         15.72893        37.51402         1.04252
C         14.47434        38.22972         0.66149
C         15.82992        40.28261         0.11763
C         14.59129        39.58847         0.11596
C         15.80702        41.73594        -0.09997
C         14.63881        42.43592        -0.23790
C         15.83596        44.62856         0.01939
C         14.61876        43.91701        -0.51368
C         15.76765        46.01770         0.17457
C         14.52556        46.73301         0.02530
C         15.75137        48.83029        -0.45282
C         14.54055        48.11965        -0.18501
C         15.75367        50.11000        -0.96756
C         18.27028        10.48721        -1.35569
C         18.26080        11.88314        -1.10204
C         17.04800        12.61302        -0.98012
C         18.27988        14.66059        -0.39317
C         17.03060        13.98442        -0.66732
C         18.25631        16.01453         0.13295
C         17.01528        16.86354        -0.05369
C         18.07711        18.71281         1.42486
C         16.80198        17.90533         1.06724
C         18.15626        20.20547         1.31124
C         16.88882        20.87804         0.94099
C         18.15520        23.06265         0.72553
C         16.86758        22.34547         0.65350
C         18.16509        24.38215         0.22282
C         16.90550        25.15119        -0.05193
C         18.16613        27.49717        -0.05677
C         16.91490        26.69959        -0.19919
C         18.10031        28.95617         0.23000
C         16.87247        29.57112         0.78007
C         18.17864        31.68864         1.19113
C         16.94308        30.95398         1.17942
C         18.20942        33.14493         1.36066
C         17.01158        33.88167         1.31105
C         18.19068        36.03305         1.31388
C         17.01397        35.31562         1.19972
C         18.20560        37.55190         1.39205
C         17.04023        38.10310         0.54308
C         18.36714        40.20598         0.01637
C         17.03243        39.60943         0.40973
C         18.38671        41.73971         0.02741
C         17.08966        42.48840        -0.09035
C         18.27626        44.64244         0.44037
C         17.04897        43.93745         0.19239
C         18.27495        46.02176         0.45881
C         17.00766        46.74845         0.39808
C         18.34329        48.72994        -0.52727
C         17.04157        48.21256        -0.05778
C         18.29220        49.91967        -1.41761
C         16.98395        50.69163        -1.52434
C         18.26726        52.81757        -1.87979
C         17.07292        52.14141        -1.69046
C         18.28322        54.22549        -1.81595
C         20.73092         6.34056        -2.48114
C         20.71146         7.64570        -2.00550
C         19.50673         8.36092        -1.75736
C         20.70716        10.46658        -1.25097
C         19.47220         9.74195        -1.41127
C         20.71813        11.85570        -1.19012
C         19.50573        12.60254        -0.99430
C         20.77888        14.71513        -0.34841
C         19.48839        13.96614        -0.57480
C         20.66990        15.96138         0.52543
C         19.38994        16.60501         0.66769
C         20.64762        18.74191         1.37930
C         19.36880        17.95540         1.30535
C         20.63964        20.24421         1.50542
C         19.33602        20.93303         1.31219
C         20.59868        23.09503         0.94824
C         19.36623        22.36657         0.98238
C         20.64938        24.41270         0.42752
C         19.43045        24.87181        -0.13051
C         20.69039        27.50971         0.02112
C         19.40815        26.99315        -0.38543
C         20.70944        28.98400         0.15007
C         19.40375        29.70836         0.34668
C         20.66552        31.70589         1.34272
C         19.39992        31.03672         0.97827
C         20.70494        33.18409         1.39759
C         19.46092        33.84759         1.41789
C         20.76214        36.06681         1.59199
C         19.43403        35.30761         1.59692
C         20.74789        37.50734         1.24518
C         19.53650        38.19555         1.03125
C         20.77287        40.28991         0.73645
C         19.56199        39.56546         0.69030
C         20.77296        41.74331         0.66605
C         19.58656        42.44745         0.50080
C         20.79666        44.66388         0.69607
C         19.50781        43.89667         0.92389
C         20.77965        46.02846         0.56763
C         19.51577        46.85070         0.70241
C         20.82297        48.73516        -0.46804
C         19.53248        48.12240        -0.16483
C         20.85295        50.01878        -1.23249
C         19.58494        50.62567        -1.73099
C         20.79961        52.86583        -1.83612
C         19.54868        52.08602        -2.23008
C         20.77244        54.24888        -1.74517
C         19.49231        54.96646        -1.71266
C         20.66769        57.05799        -0.97073
C         19.45737        56.32642        -1.46317
C         20.66641        58.52963        -1.27778
C         23.31436         3.65621        -3.30855
C         22.09130         4.25482        -3.08441
C         23.32336         6.45872        -2.75143
C         21.97437         5.69831        -2.93650
C         23.30433         7.71793        -1.99744
C         21.99850         8.27339        -1.60002
C         23.27585        10.42387        -1.07727
C         21.98064         9.71864        -1.16582
C         23.26763        11.80533        -0.90354
C         22.05524        12.46004        -1.46817
C         23.22917        14.45417         0.59777
C         21.82915        13.85515         0.39573
C         23.13764        15.95235         0.38068
C         21.85897        16.62501         0.71463
C         23.13564        18.89283         0.75842
C         21.86912        18.10238         0.82312
C         23.11350        20.33548         1.13641
C         21.92534        20.98180         1.30656
C         23.14378        23.24494         1.23964
C         21.86393        22.46197         1.38564
C         23.09301        24.62194         0.70119
C         21.86962        25.24772         0.38766
C         23.09983        27.43358         0.44841
C         21.83548        26.71790         0.23983
C         23.19418        28.83332         0.63631
C         21.97724        29.64958         0.52928
C         23.23099        31.71454         1.14909
C         21.96060        30.96960         1.21399
C         23.20749        33.12508         1.17074
C         21.95456        33.86893         1.31505
C         23.19669        36.01284         1.10991
C         22.00377        35.30314         1.33263
C         23.22804        37.44820         1.11258
C         21.98429        38.18202         1.11901
C         23.22649        40.31993         1.03837
C         21.99314        39.59889         0.97058
C         23.21282        41.73915         0.97096
C         22.02006        42.45126         0.80146
C         23.25000        44.54952         0.43866
C         22.04482        43.91088         0.67008
C         23.33610        46.01093         0.44085
C         22.03263        46.80132         0.50478
C         23.33713        48.89298        -0.13853
C         22.01092        48.15078        -0.10189
C         23.33557        50.17839        -0.94224
C         22.09218        50.84084        -1.24634
C         23.31873        52.88972        -1.96837
C         22.05616        52.15790        -1.68753
C         23.29615        54.41176        -2.09835
C         21.98940        55.02835        -1.63776
C         23.17264        57.15706        -1.32199
C         21.95198        56.37769        -1.37206
C         23.11969        58.55737        -1.24918
C         21.82794        59.23669        -1.34045
C         22.94689        61.42279        -1.33432
C         21.82262        60.69278        -1.44454
C         24.54072         4.35080        -3.20092
C         25.77426         6.36680        -2.45034
C         24.58453         5.69476        -2.79059
C         25.77118         7.70626        -1.97562
C         24.49674         8.34700        -1.66946
C         25.71798        10.42161        -1.02043
C         24.50947         9.71209        -1.16900
C         25.70966        11.81203        -0.67118
C         24.46581        12.51317        -0.58970
C         25.65599        14.54806         0.02899
C         24.45133        13.85789        -0.10062
C         25.70437        15.90769         0.69861
C         24.42015        16.69442         0.47653
C         25.69434        18.80980         1.22380
C         24.40558        18.11635         0.94623
C         25.70313        20.30446         1.04467
C         24.41004        21.06040         1.04585
C         25.62493        23.22964         1.43319
C         24.44832        22.52225         1.26933
C         25.52539        24.66662         1.18324
C         24.36157        25.29417         0.64421
C         25.49926        27.49491         0.22444
C         24.32716        26.71662         0.39182
C         25.63177        28.82525         0.66401
C         24.41869        29.52747         0.85651
C         25.66726        31.68336         1.08446
C         24.43742        30.98121         1.03801
C         25.65939        33.09386         1.08970
C         24.44657        33.80529         1.04956
C         25.72868        35.96858         0.91797
C         24.42854        35.25904         0.66573
C         25.72582        37.45660         0.67031
C         24.44266        38.17074         1.03913
C         25.70158        40.32583         1.15011
C         24.46095        39.59277         1.10428
C         25.76072        41.71516         1.02321
C         24.49246        42.53256         1.10311
C         25.79124        44.42381         0.02792
C         24.45797        43.68095         0.09458
C         25.81584        45.92266        -0.17776
C         24.53454        46.68400        -0.11605
C         25.85633        48.55978        -0.93124
C         24.52641        47.99736        -0.44673
C         25.80146        50.04921        -1.24345
C         24.53504        50.79675        -1.19373
C         25.85860        52.96273        -1.37637
C         24.62661        52.17889        -1.71952
C         25.71913        54.39075        -1.23058
C         24.50259        55.07395        -1.45430
C         25.60808        57.23157        -0.94464
C         24.43146        56.47302        -1.25677
C         25.52515        58.65841        -0.90790
C         24.32500        59.31445        -1.10747
C         24.31151        60.82653        -1.14964
C         26.96566         8.41028        -1.76894
C         28.18190        10.44182        -1.09457
C         26.99177         9.75905        -1.28771
C         28.22825        11.76592        -0.38010
C         26.92744        12.52553        -0.47231
C         28.14497        14.69019        -0.23769
C         26.90435        13.90325        -0.22625
C         28.13288        16.04769        -0.06323
C         26.84969        16.80294         0.18480
C         28.18155        18.93361         0.72178
C         27.02486        18.04134         1.13268
C         28.21206        20.25488         1.04959
C         26.97099        20.99678         1.46693
C         28.31253        23.15336         1.77800
C         26.94652        22.49101         1.74247
C         28.46311        24.46410         2.16124
C         26.64006        25.47990         1.57562
C         28.35120        27.34119         1.26560
C         27.19957        26.53131         0.90893
C         28.27806        28.70581         0.95154
C         26.95363        29.43560         0.99725
C         28.21337        31.70023         0.92527
C         26.95574        30.94238         1.20244
C         28.18088        33.05828         0.85980
C         26.96054        33.82490         1.36030
C         28.17658        36.03546         0.91564
C         26.91476        35.29660         0.98745
C         28.21479        37.39655         1.09750
C         26.93503        38.10231         1.30378
C         28.25244        40.27830         1.40030
C         26.94986        39.58608         1.41241
C         28.26565        41.78543         1.49459
C         26.99517        42.42484         0.96957
C         28.23736        44.48522         0.37425
C         27.02532        43.77240         0.53364
C         28.24332        45.90507         0.10930
C         27.07937        46.65551         0.05831
C         28.22744        48.96637        -0.02328
C         26.92687        48.18221         0.15861
C         28.27725        50.04622        -0.88532
C         27.08238        50.82603        -1.28225
C         28.16469        53.05897        -0.47212
C         27.05641        52.31212        -1.05673
C         28.02978        54.44870        -0.38812
C         26.86241        55.14230        -0.78346
C         26.80779        56.54880        -0.70133
C         29.41367        12.62366        -0.72757
C         30.59173        14.77288        -0.73422
C         29.39540        13.99398        -0.58238
C         30.61939        16.16310        -0.57154
C         29.31333        16.91476        -0.44023
C         30.72826        18.94131         0.27296
C         29.43470        18.18459         0.39951
C         30.72219        20.39635         0.49853
C         29.52827        20.93758         1.20022
C         30.95499        23.02499         1.65090
C         29.56427        22.34428         1.68600
C         30.91221        24.55200         1.89012
C         29.63282        25.28114         1.90811
C         30.80052        27.42727         1.38553
C         29.58717        26.66147         1.60400
C         30.70620        28.84369         1.11044
C         29.48627        29.47886         0.93063
C         30.71997        31.65454         0.51142
C         29.40995        30.90266         0.40765
C         30.67905        33.10786         0.23484
C         29.35964        33.82646         0.36887
C         30.71312        36.10491         0.34216
C         29.38295        35.32788         0.42773
C         30.65787        37.48454         0.96577
C         29.45908        38.13651         1.17996
C         30.70267        40.31774         1.75504
C         29.42387        39.57479         1.42826
C         30.73392        41.71724         1.13146
C         29.54423        42.37007         0.92220
C         30.89455        44.50951         0.48081
C         29.51653        43.73877         0.39901
C         30.70786        45.97896         0.80504
C         29.61349        46.46004        -0.15537
C         30.78261        49.06051         0.65210
C         29.36931        48.61969         0.78562
C         30.80051        50.51890         0.77995
C         29.91876        51.28287         0.00673
C         29.34050        52.53169         0.19820
C         31.79779        16.91276        -0.71858
C         32.82732        19.13427        -0.99054
C         31.82786        18.33265        -0.51350
C         32.84477        20.63807        -0.88643
C         31.72437        21.23214         0.00664
C         32.78441        23.50941         0.00998
C         31.73108        22.62361         0.37781
C         33.16640        24.62773         0.73108
C         32.14372        25.34125         1.52304
C         33.22833        27.47296         0.79486
C         32.03861        26.78101         1.25405
C         33.21497        28.88106         0.76036
C         31.99049        29.62227         1.24871
C         33.18317        31.75435         0.70614
C         31.91642        31.03431         0.73270
C         33.18844        33.16174         0.68265
C         31.94273        33.89727         0.43033
C         33.19147        36.05305         0.82997
C         31.87404        35.31015         0.98830
C         33.17253        37.46676         0.86476
C         31.91916        38.17752         1.12372
C         33.21418        40.23645         1.56368
C         31.94587        39.50723         1.46930
C         33.12563        41.68588         1.60156
C         32.01120        42.43306         1.16086
C         33.32277        44.69523         1.26358
C         32.06476        43.84524         1.01131
C         33.15678        46.16327         0.93396
C         31.96818        46.80634         0.78893
C         31.89715        48.26021         0.74268
C         34.23406        21.06823        -0.42201
C         35.76742        23.08835        -0.16456
C         34.63317        22.39069        -0.58367
C         35.73452        24.56639         0.06781
C         34.47755        25.29783         0.54325
C         35.60250        27.48937         0.14499
C         34.42540        26.77535         0.45863
C         35.61580        28.89960         0.27136
C         34.41487        29.58941         0.54288
C         35.62884        31.75251         0.67083
C         34.41506        31.03959         0.64135
C         35.54693        33.11470         1.00151
C         34.38766        33.89368         0.83593
C         35.58092        36.08307         0.27964
C         34.41551        35.35522         0.70908
C         35.49243        37.48958         0.11903
C         34.35673        38.18747         0.58538
C         35.52836        40.41744         0.15879
C         34.48673        39.63071         0.90685
C         35.59155        41.81685        -0.01018
C         34.83239        42.79492         0.70392
C         34.41770        44.06153         0.40277
C         36.77489        25.41435        -0.53197
C         37.85278        27.58542        -0.91008
C         36.77052        26.79182        -0.39511
C         37.93399        28.95912        -0.70104
C         36.90094        29.62722         0.12446
C         38.00684        31.90169        -0.42026
C         36.95666        31.13184         0.34214
C         38.02798        33.31579        -0.55248
C         37.19409        34.18114         0.21305
C         37.68641        36.13801        -1.10428
C         36.80214        35.45519        -0.19008
C         37.55752        37.53455        -1.23792
C         36.54790        38.23949        -0.54091
C         36.47514        39.64783        -0.56712
C         38.96268        29.75296        -1.25666
C         39.93023        31.86917        -1.99292
C         38.96589        31.15934        -1.18603
C         39.86649        33.21867        -2.18816
C         38.86669        33.99819        -1.51347
C         38.72696        35.37815        -1.71632
O         20.38786        49.79217        -2.63586
O         13.48695        40.91163        -1.69539
O         26.47194        50.36905        -2.53133
O         23.48511        14.25632         2.02166
O         11.55559        30.07924         2.27101
O         29.90054        47.00767        -1.20732
O         14.80708        20.32106         2.37944
O         17.92968        42.24264        -1.29916
O         33.60188        23.23049        -1.10481
O         22.88577        46.65754         1.69822
O         16.97792        47.87037         1.37523
O         29.05527        34.62252        -0.83080
O         29.62984        21.24058         2.66209
O         31.87378        24.97156         2.91238
O         37.44335        30.20932         1.36629
O         13.40733        38.06916         1.66755
O         22.45619        23.10000         2.56122
O         26.84533        21.50260         2.82648
O         22.22111        13.22910        -2.42009
O         27.33121        25.07258         2.72537
O         11.71346        37.57186        -1.66057
O         16.83330        25.80846        -1.35801
O         10.28435        33.17911        -1.33612
O         34.34248        39.75260         2.36039
O         13.11876        33.04191        -0.70415
O         30.39436        18.13671         1.47746
O         24.87448        18.31390         2.32749
O         36.71870        33.72502         1.44754
O         18.62147        29.73092        -0.91389
O         25.15285        20.72976        -0.22982
O         26.62461        26.86921        -0.33364
O         19.48633        25.82065        -1.13975
O         14.40744        29.90694         2.60422
O         18.68219        18.08232         2.60047
O         22.35646        18.67663        -0.45485
O         21.94129         8.63210        -0.17078
O         21.30165        31.00515         2.51809
O         30.35570        44.00820        -0.76532
O         29.47745        50.62259        -1.18204
O         15.64468        36.93612         2.36182
O         26.93730        30.04682         2.35600
O         15.75583        32.46193         2.79527
O         34.31748        42.27374         1.94274
O         26.76898        38.69722         2.61932
O         20.79219        19.37029         2.68253
O         22.61353         6.48555        -4.01804
O         17.48905        49.81022        -2.62472
O         35.51767        24.86622         1.50407
O         24.08518        52.29999        -3.08256
O         31.43358        33.61833        -0.92007
O         20.08764        35.76633         2.85967
O         23.80970        16.45622        -0.81505
O         25.95325        44.99220        -1.31272
O         21.51440        29.69600        -0.87346
O         16.89923        21.36389        -0.46470
O         32.62323        21.10018        -2.24318
H         32.84351        22.06230        -2.25924
O         17.99753        37.93355         2.77284
H         18.57827        37.36270         3.32446
O         26.21791        47.85969        -2.12892
H         26.49535        48.52437        -2.80278
O         32.18833        29.78071         2.69851
H         32.28593        28.88452         3.08692
O         30.69123        40.54726         3.19819
H         29.88663        41.09188         3.39260
O         25.88367        37.64067        -0.77054
H         25.32258        36.95845        -1.20973
O         29.15565        30.74366        -1.02860
H         29.28964        31.61613        -1.45873
O         24.32829        35.25327        -0.82308
H         23.49007        34.80091        -1.06143
O          9.61940        22.50694         0.40868
H          9.68495        22.69511         1.36747
O         16.38351        17.17718         2.24327
H         17.12643        17.22135         2.89403
O         19.49137        47.27665         2.09947
H         18.60524        47.69578         2.24254
O         23.38432        54.73321        -3.51581
H         23.88812        53.99728        -3.93735
O         15.27684        27.96188        -1.39995
H         15.59883        27.26806        -2.02017
O         23.54209        49.33859         1.24219
H         23.50548        48.52577         1.80488
O         21.20613        15.31549        -1.57854
H         21.27492        14.64014        -2.29571
O         25.86421        15.64165         2.10580
H         25.11387        15.05951         2.38382
O         28.32997        42.11110         2.93977
H         27.52413        41.73540         3.35672
O         14.42311        22.75759         2.69778
H         14.62955        21.90165         3.15302
O         24.92206        61.36488         0.03929
H         24.36456        61.11282         0.80373
O         26.34691        48.48932         1.44216
H         27.00463        48.26326         2.13561
O         27.07416        33.82321         2.82087
H         27.84494        34.37408         3.07338
O         12.92908        32.22065         2.87153
H         12.94008        31.42207         3.44638
O         30.23965        45.95766         2.19765
H         30.95931        45.55581         2.73436
O          7.21986        31.04631         1.89312
H          6.46221        30.59540         2.32031
O         19.57125        52.03357        -3.67663
H         20.09376        51.23536        -3.92392
O         20.57977        56.96336         0.50982
H         20.59211        56.00954         0.73908
O         26.40656        17.32896        -1.08632
H         27.20494        17.61828        -1.59399
O         17.23465        17.62458        -1.27201
H         17.39131        16.99551        -2.00703
O         29.02052        48.10481         1.96824
H         29.77049        47.63037         2.41758
O         12.91728        24.90726         2.32155
H         13.47751        24.26230         2.82081
O          8.19693        31.41396        -1.61610
H          8.95159        31.91574        -2.00936
O         28.39780        11.41193         1.04987
H         27.59466        10.92136         1.32697
O         24.22307        43.09599        -1.20160
H         24.62998        43.69852        -1.86747
O         21.46733        12.96444         1.15632
H         22.95842        13.46371         2.29218
O         24.50630        43.14849         2.42457
H         24.31750        42.45344         3.08907
O         31.76742        22.48257         2.70327
H         31.28347        21.70261         3.07527
O         27.41853        17.63447         2.44451
H         26.61913        17.28784         2.90586
O         31.02607        36.32381        -1.04344
H         30.69900        35.53297        -1.53684
O         29.01562        17.42120        -1.79810
H         29.09501        16.66807        -2.42237
O         17.18814        37.55566        -0.80046
H         17.75798        38.18696        -1.31408
O         19.33556        43.84822         2.38535
H         19.44673        44.76578         2.72126
O         14.70732        44.04549        -1.96946
H         14.07966        43.40437        -2.36716
O         33.65592        44.69086         2.67174
H         34.06815        43.81898         2.87965
O         31.54423        35.18520         2.39742
H         32.36097        34.97349         2.89639
O         18.54927        39.79964        -1.39175
H         18.18821        40.54699        -1.93427
H          4.81054        31.25032         0.13092
H          4.89184        33.69178        -0.13856
H          7.33314        26.87720        -0.40559
H          6.06386        28.99747        -0.10440
H          6.18745        35.84016        -0.12384
H          7.41455        37.95893        -0.26232
H         10.64904        22.85474        -1.33274
H          8.63989        24.73357        -0.57907
H          8.69497        40.09640        -0.46904
H          9.92566        42.22755        -0.32354
H         12.34839        18.40708        -0.28442
H         11.16467        20.51541        -0.29405
H         11.15987        44.37943         0.03579
H         12.35215        46.50990         0.13883
H         14.86058        14.14379        -0.71235
H         13.57568        16.19647        -0.33396
H         13.58754        48.64063        -0.35946
H         14.80469        50.64321        -1.12619
H         17.31044         9.96766        -1.49618
H         16.09225        12.08503        -1.11695
H         16.16644        52.72712        -1.47128
H         17.32848        54.75981        -1.69335
H         19.78396         5.79518        -2.61369
H         18.55234         7.85411        -1.96616
H         18.48335        56.83694        -1.40566
H         19.69820        59.05182        -1.31512
H         23.34827         2.57114        -3.48412
H         21.18825         3.63832        -2.96741
H         22.89259        62.52144        -1.37197
H         20.84831        61.19008        -1.56911
H         25.48221         3.79493        -3.31477
H         26.73753         5.85135        -2.58236
H         26.44163        59.24102        -0.73384
H         24.96091        61.16238        -2.00551
H         27.92309         7.91412        -1.98881
H         29.13511         9.92705        -1.29215
H         28.86210        55.03407         0.02974
H         27.71302        57.10907        -0.42535
H         30.35988        12.11994        -0.97940
H         31.53771        14.24131        -0.92100
H         31.28324        50.95956         1.66590
H         29.82569        53.21686         0.90984
H         32.72008        16.40541        -1.04156
H         33.64217        18.68456        -1.57842
H         34.08018        46.76053         0.98442
H         32.87004        48.77461         0.76240
H         34.91518        20.32977         0.02313
H         36.63339        22.53907         0.23305
H         36.31998        42.18627        -0.74867
H         34.67200        44.52033        -0.56198
H         37.59892        24.93045        -1.07786
H         38.65422        27.07908        -1.46939
H         38.28363        38.09277        -1.84723
H         37.24699        40.19219        -1.13288
H         39.74091        29.25805        -1.85748
H         40.69088        31.27422        -2.51969
H         40.57113        33.72095        -2.86611
H         39.42492        35.88910        -2.39592
