         424
 CSIRO Nanostructure Databank - Neutral Graphene Oxide Data Set
C          1.37151         3.41351        -1.11091
C          0.19561         4.10868        -1.36051
C          1.28009         6.22537        -0.79128
C          0.14980         5.49950        -1.22138
C          1.26685         7.69172        -0.69390
C          0.11094         8.41720        -1.03785
C          1.26766        10.53719        -0.77563
C          0.11413         9.81054        -1.07941
C          1.25758        12.04029        -0.94151
C          0.00269        12.70083        -0.42680
C          1.19244        14.83031        -0.15955
C         -0.01647        14.02095        -0.14823
C          1.15730        16.21679         0.00425
C         -0.09072        16.95372        -0.00213
C          1.08992        19.06582         0.43127
C         -0.14037        18.29328         0.18832
C          1.09461        20.58336         0.46236
C         -0.14003        21.35696         0.23945
C          1.11603        23.47198         0.25875
C         -0.11447        22.70867         0.18694
C          1.10131        24.86650         0.26618
C         -0.09640        25.64582         0.37718
C          1.15628        27.77041         0.34347
C         -0.07489        27.01438         0.40214
C          1.14027        29.22588         0.35654
C          0.02142        29.97193         0.65508
C          1.18547        32.11972         0.35789
C          0.02376        31.39463         0.59328
C          1.19469        33.58777         0.31508
C         -0.01082        34.33704         0.24024
C          1.23755        36.42549         0.16723
C          0.01052        35.71855         0.18525
C          1.28022        37.85799         0.11196
C          3.77414         3.41931        -0.55655
C          2.52644         4.10753        -0.67514
C          3.62659         6.21219         0.08158
C          2.46050         5.51336        -0.48535
C          3.66916         7.69394        -0.02401
C          2.44532         8.40762        -0.34699
C          3.65321        10.58023        -0.13948
C          2.45043         9.84307        -0.40716
C          3.68089        11.99024        -0.18371
C          2.48659        12.73357        -0.40599
C          3.67751        14.84586         0.02656
C          2.45986        14.12514        -0.20695
C          3.66759        16.26504         0.14619
C          2.39075        16.97791         0.10978
C          3.64982        19.11991         0.00216
C          2.36290        18.35508         0.21411
C          3.59882        20.60655         0.28568
C          2.38149        21.31136         0.28812
C          3.61428        23.41376         0.39646
C          2.37653        22.73010         0.28675
C          3.58780        24.88908         0.59637
C          2.39468        25.60483        -0.00180
C          3.62965        27.80043         0.29087
C          2.36571        27.08714         0.27544
C          3.64577        29.20355         0.12412
C          2.36393        29.93227        -0.18369
C          3.64455        32.06642         0.15400
C          2.42430        31.40498         0.15827
C          3.69718        33.52012         0.56649
C          2.42049        34.27282         0.29611
C          3.70712        36.39385         0.12971
C          2.45688        35.69103         0.20961
C          3.72229        37.81534         0.03651
C          2.47296        38.52711         0.06245
C          6.16986         3.27294        -0.44199
C          4.97583         4.01445        -0.16853
C          6.14921         6.27591         0.39619
C          4.92188         5.43179         0.33902
C          6.12073         7.68613         0.25363
C          4.85843         8.38031         0.15827
C          6.14592        10.54967         0.19619
C          4.83571         9.85648         0.45244
C          6.13785        12.00471         0.18573
C          4.91428        12.70895         0.07102
C          6.12927        14.84205         0.36444
C          4.90988        14.13189         0.14302
C          6.11271        16.28277         0.45765
C          4.86698        16.96296         0.37435
C          6.10971        19.17415         0.44058
C          4.81582        18.43806         0.71152
C          6.09585        20.56559         0.38994
C          4.82833        21.29918         0.37518
C          6.11244        23.41975         0.82250
C          4.82502        22.71215         0.46200
C          6.13473        24.91067         0.56791
C          4.86450        25.65145         0.76239
C          6.07637        27.79898         0.39954
C          4.85412        27.10957         0.48087
C          6.08956        29.18504         0.18113
C          4.87036        29.90053         0.08255
C          6.10993        32.05699         0.04046
C          4.88382        31.35462         0.03179
C          6.12358        33.50000        -0.01204
C          4.93926        34.23335         0.10402
C          6.14211        36.36905        -0.17153
C          4.94020        35.67079         0.03363
C          6.16575        37.79365        -0.23474
C          4.94715        38.49867        -0.11336
C          8.72623         3.30474        -0.33730
C          7.43417         3.58994         0.09270
C          8.63023         6.30325         0.37673
C          7.38876         5.69002         0.65597
C          8.60051         7.71755         0.20239
C          7.35334         8.40421         0.21048
C          8.59612        10.61924        -0.16271
C          7.32343         9.84992         0.11966
C          8.61480        11.93657         0.61288
C          7.34499        12.71610         0.35588
C          8.61754        14.81586         0.72180
C          7.34130        14.11268         0.47196
C          8.61072        16.32968         0.69932
C          7.32556        17.02530         0.52901
C          8.57433        19.14664         0.25273
C          7.33953        18.44713         0.41514
C          8.56456        20.57073         0.15305
C          7.33827        21.28804         0.29787
C          8.53027        23.40333         0.06289
C          7.34699        22.70593         0.32982
C          8.54715        24.90302        -0.13846
C          7.28921        25.58371         0.35010
C          8.62383        27.75719         0.28238
C          7.35388        27.05273         0.70636
C          8.63004        29.16993         0.20214
C          7.36748        29.88580        -0.19793
C          8.55082        32.06325         0.23404
C          7.36221        31.36260         0.09099
C          8.56669        33.48949         0.10092
C          7.38736        34.17589        -0.11877
C          8.66655        36.35061        -0.25776
C          7.38731        35.61418        -0.54457
C          8.64711        37.79141        -0.40678
C          7.41322        38.47328        -0.41417
C         11.11859         3.44408         0.05061
C          9.87772         4.09302         0.06573
C         11.07321         6.25925         0.24921
C          9.85016         5.53523         0.28757
C         11.07765         7.70257         0.20679
C          9.85404         8.43133         0.13378
C         11.08176        10.55338         0.10924
C          9.86827         9.84143         0.07056
C         11.08814        12.00411         0.14665
C          9.87896        12.71762         0.32141
C         11.09087        14.85347         0.26523
C          9.88615        14.11518         0.41470
C         11.07968        16.30120         0.23000
C          9.86222        17.03074         0.36079
C         11.04283        19.14730        -0.04587
C          9.82217        18.43031         0.17940
C         11.02640        20.56423        -0.19256
C          9.77986        21.29185        -0.06386
C         10.96201        23.47355        -0.46522
C          9.73761        22.70095        -0.14903
C         11.05688        24.88942        -0.08586
C          9.81949        25.54378         0.47740
C         11.05960        27.73759         0.13946
C          9.82810        27.04265         0.26152
C         11.05183        29.14974         0.27470
C          9.84214        29.87364         0.29963
C         11.07555        32.09364         0.15940
C          9.83150        31.36191         0.62200
C         11.09895        33.45818        -0.00968
C          9.85482        34.23229         0.37446
C         11.11155        36.33099        -0.26291
C          9.85195        35.66648        -0.08563
C         11.11054        37.77532        -0.45051
C          9.88394        38.47422        -0.46334
C         13.56597         3.44088         0.38729
C         12.34254         4.13162         0.24884
C         13.55206         6.27698         0.27916
C         12.32413         5.56677         0.26037
C         13.55932         7.71068         0.18217
C         12.31012         8.41658         0.15748
C         13.55243        10.55981         0.03848
C         12.31588         9.84078         0.11269
C         13.55011        11.98697        -0.00169
C         12.31531        12.71334         0.08528
C         13.55605        14.85389        -0.00760
C         12.32092        14.14429         0.10947
C         13.54651        16.29420        -0.08819
C         12.29281        17.00405        -0.00281
C         13.49293        19.14773        -0.30658
C         12.27797        18.43232        -0.10423
C         13.45571        20.54004        -0.51682
C         12.24181        21.24353        -0.45454
C         13.53581        23.44042        -0.54878
C         12.24994        22.70938        -0.66109
C         13.51528        24.89201        -0.44484
C         12.26835        25.58776        -0.20735
C         13.53526        27.72328        -0.10841
C         12.30376        27.01822        -0.02835
C         13.57297        29.14236         0.07084
C         12.34055        29.84911         0.39940
C         13.58529        32.05052        -0.07859
C         12.34416        31.37964         0.29528
C         13.57348        33.44871        -0.35411
C         12.33468        34.17129        -0.26240
C         13.49244        36.31123        -0.94830
C         12.30531        35.59213        -0.35401
C         13.57393        37.77755        -0.55682
C         12.33281        38.47325        -0.52253
C         16.01625         3.46050         0.74163
C         14.78245         4.13712         0.51950
C         16.00777         6.28582         0.46120
C         14.77934         5.57117         0.41489
C         16.02671         7.70138         0.22961
C         14.77878         8.41179         0.09841
C         16.00615        10.55348        -0.17516
C         14.78530         9.84608        -0.01070
C         15.98820        11.95354        -0.26045
C         14.77689        12.69125        -0.11636
C         16.02249        14.83425        -0.18454
C         14.78717        14.13495        -0.11797
C         16.06046        16.32216         0.04998
C         14.75056        17.00334        -0.25020
C         15.95485        19.12576        -0.54038
C         14.75955        18.42843        -0.37769
C         15.94127        20.60791        -0.27679
C         14.71812        21.25312        -0.94463
C         15.98319        23.45494        -1.01495
C         14.70321        22.73571        -0.68078
C         16.03746        24.85597        -0.41157
C         14.72735        25.60903        -0.46325
C         16.03383        27.72941        -0.27741
C         14.76359        27.01155        -0.29701
C         16.02669        29.17257        -0.10297
C         14.78759        29.86836         0.01209
C         16.02625        32.02465        -0.01527
C         14.78729        31.31235        -0.03646
C         16.03484        33.45572        -0.22636
C         14.83634        34.11548        -0.54809
C         16.12495        36.31615        -0.73404
C         14.83322        35.56526        -0.87079
C         16.02918        37.68761        -0.08133
C         14.77282        38.43536        -0.40834
C         18.46303         3.49778         1.13608
C         17.21552         4.16246         0.85514
C         18.44213         6.31861         0.78508
C         17.22483         5.59248         0.68959
C         18.45715         7.72965         0.54402
C         17.25000         8.38810         0.18392
C         18.53362        10.53591         0.00819
C         17.29437         9.77479        -0.40401
C         18.58185        11.95561        -0.33306
C         17.23027        12.70021        -0.51672
C         18.48376        14.84628        -0.40223
C         17.24057        14.15085        -0.33794
C         18.45006        16.28331        -0.63871
C         17.27678        16.98533        -0.55219
C         18.47179        19.19587        -0.75206
C         17.19538        18.42485        -1.02610
C         18.47899        20.57682        -0.55998
C         17.24024        21.33198        -0.56089
C         18.49581        23.45974        -0.61042
C         17.25745        22.70354        -0.68466
C         18.51317        24.86939        -0.64004
C         17.24129        25.63927        -0.97053
C         18.51708        27.82773        -0.67998
C         17.23594        27.06776        -0.47267
C         18.50692        29.21537        -0.08746
C         17.24515        29.89692         0.00650
C         18.44760        32.02914         0.65077
C         17.22143        31.30884         0.17273
C         18.45613        33.49243         0.27830
C         17.31226        34.14760        -0.11733
C         18.53107        36.35491         0.13081
C         17.46377        35.57667        -0.60417
C         18.49388        37.78897         0.14087
C         17.30109        38.46556        -0.17123
C         19.62621         4.20239         1.26297
C         20.84518         6.37006         1.20969
C         19.65641         5.63142         1.09169
C         20.84737         7.75762         1.03738
C         19.67921         8.45807         0.70303
C         20.82074        10.71607         0.81210
C         19.66614         9.91272         0.51425
C         20.85382        12.07619         0.58463
C         19.75052        12.76214         0.01197
C         20.95083        14.92430        -0.31564
C         19.71872        14.16399        -0.23832
C         20.96939        16.21292        -0.72985
C         19.72649        16.95401        -1.00472
C         20.97803        19.22574        -0.74559
C         19.73606        18.48763        -0.99362
C         20.95202        20.55588        -0.47563
C         19.72233        21.30760        -0.46224
C         20.92689        23.46872        -0.22952
C         19.71961        22.72184        -0.41356
C         20.92713        24.83495        -0.21445
C         19.72521        25.59463        -0.41314
C         20.93059        27.74514        -0.07580
C         19.74862        27.01649        -0.33650
C         20.93384        29.12382         0.05597
C         19.72391        29.88487         0.09504
C         20.90551        32.05942         0.37920
C         19.74832        31.32125         0.33614
C         20.88549        33.48241         0.53452
C         19.71301        34.20698         0.45686
C         20.81397        36.41263         0.96906
C         19.69387        35.67303         0.52185
C         20.79957        37.81299         0.94131
C         19.67278        38.50155         0.51782
O         18.00771        12.24634        -1.67149
O         19.72912        17.69115        -2.27603
O          4.03257        25.27717         1.93411
O          3.98372         5.69302         1.42213
O         11.48221        23.16611        -1.82586
O         12.44112        30.68505         1.61864
O          1.06510        19.81249         1.72440
O          7.38565         4.42479         1.23000
O         15.59932        36.06209        -2.06104
O          8.67051        15.56627         1.98155
O         15.89328        37.31753         1.35763
H         15.89622        38.14958         1.87731
O          3.82153        33.48802         2.04264
H          3.01947        33.04040         2.38839
O         13.12826        36.34629        -2.36770
H         13.95352        36.56399        -2.86002
O          2.61794        25.49164        -1.45507
H          1.92852        26.02630        -1.90325
O         18.60854        28.06787        -2.13963
H         18.22061        27.26989        -2.58113
O          4.56478        18.52803         2.13941
H          5.32044        18.11914         2.61063
O          8.60271        25.11815        -1.57554
H          8.68614        26.08217        -1.73818
O          4.62595         9.94093         1.91818
H          3.89974         9.32200         2.14769
O         17.18300        25.78856        -2.41908
H         16.90791        24.92046        -2.81004
O          8.57833        10.98132        -1.57589
H          8.60796        10.15438        -2.10067
O          9.78846        25.30835         1.91133
H          8.99828        25.78422         2.26911
O         18.01991        35.44891        -1.95127
H         17.25022        35.37811        -2.56448
O         17.06551        18.36411        -2.49063
H         17.94599        18.05895        -2.82694
O          2.22299        29.87096        -1.65927
H          1.42235        30.38983        -1.88843
O         18.34853        31.98964         2.12967
H         19.12642        32.47659         2.47744
O          9.87512        31.44728         2.09441
H         10.77565        31.11516         2.35035
O          7.33784        35.55180        -2.02979
H          7.34852        36.47847        -2.35380
O          7.46353        27.02602         2.18470
H          7.49648        27.95471         2.50089
O          9.93065        34.30830         1.84105
H          9.88759        33.37626         2.17749
O          3.94404        19.01152        -1.42814
H          3.26450        19.51538        -1.92252
O         16.23320        16.48928         1.52081
H         15.46600        16.05418         1.95166
O          8.64075        11.60266         2.02511
H          8.57697        12.43594         2.53755
O         17.39407         9.58204        -1.85834
H         17.56480        10.47892        -2.23947
O         14.86030        21.06383        -2.38828
H         13.97927        21.19881        -2.79860
O         16.29915        24.64705         1.00375
H         16.24085        25.51438         1.45700
O         15.94677        23.53119        -2.47803
H         15.75511        22.60937        -2.79588
O          6.17464        23.33816         2.28913
H          5.42763        23.88605         2.62919
O         15.70449        20.76922         1.15687
H         16.45397        20.36118         1.63892
O          7.39451        29.80459        -1.67742
H          6.59407        30.26582        -2.00944
O          1.26934        12.26656        -2.39996
H          1.29205        13.23712        -2.54086
H          1.41667         2.32427        -1.25157
H         -0.70305         3.56855        -1.68973
H         -0.79217         6.01484        -1.44895
H         -0.81439         7.89243        -1.30738
H         -0.80085        10.33425        -1.38825
H         -0.92958        12.12028        -0.37132
H         -0.96327        14.48804         0.15800
H         -1.03042        16.40852        -0.16584
H         -1.11130        18.80703         0.21910
H         -1.10250        20.82782         0.20330
H         -1.06378        23.24784         0.06290
H         -1.06422        25.13667         0.48619
H         -1.02686        27.55554         0.48851
H         -0.91021        29.47859         0.96724
H         -0.92041        31.91630         0.79947
H         -0.97866        33.81733         0.23186
H         -0.93373        36.28080         0.14533
H          0.33101        38.41368         0.10510
H          3.79741         2.36529        -0.87373
H          2.49158        39.62567         0.01261
H          6.08602         2.42407        -1.13827
H          4.94953        39.59737        -0.17022
H          8.90205         2.47332        -1.03665
H          7.41016        39.57128        -0.48323
H         11.14567         2.35405        -0.09609
H          9.89162        39.57071        -0.55523
H         13.56441         2.34095         0.40848
H         12.33095        39.57289        -0.46748
H         16.01330         2.36515         0.84653
H         14.76696        39.52538        -0.24160
H         18.45944         2.40487         1.26086
H         17.27472        39.56590        -0.17841
H         20.56835         3.68160         1.48952
H         21.78456         5.85095         1.44875
H         21.79833         8.29517         1.15373
H         21.70639        10.23975         1.25302
H         21.75684        12.63820         0.86137
H         21.90305        14.40388        -0.14201
H         21.93128        16.71370        -0.90501
H         21.94095        18.70412        -0.82635
H         21.90713        21.07661        -0.32622
H         21.87792        22.94390        -0.07047
H         21.87995        25.35404        -0.04958
H         21.88849        27.22091         0.04621
H         21.89434        29.62660         0.23237
H         21.88624        31.57787         0.25953
H         21.85069        33.99980         0.62261
H         21.71928        35.89361         1.31262
H         21.69257        38.36883         1.26060
H         19.66112        39.60076         0.50713
