         640
 CSIRO Nanostructure Databank - Neutral Graphene Oxide Data Set
C         22.95276        27.36555        -0.27875
C         22.95244        28.75295        -0.33464
C         23.04058        31.64383         0.32026
C         23.12112        32.95475         0.64500
C         23.21541        35.86752         1.06534
C         23.29263        37.20708         1.35994
C         23.53607        39.98114         2.26233
C         23.67990        41.27162         2.78674
C         23.97204        44.00369         3.85406
C         24.17635        45.23944         4.47552
C         25.38856        24.53885        -0.25590
C         24.19608        25.22470        -0.23243
C         25.40290        27.35990        -0.38975
C         24.17218        26.64844        -0.29517
C         25.38895        28.78815        -0.44123
C         24.15384        29.48025        -0.39112
C         25.44126        31.65833        -0.31577
C         24.10773        30.98693        -0.51875
C         25.47454        33.06186        -0.07240
C         24.29547        33.74768         0.34370
C         25.55393        35.88280         0.32452
C         24.34998        35.15227         0.58241
C         25.61418        37.28098         0.60046
C         24.49569        37.94144         1.16774
C         25.76717        40.05884         1.27842
C         24.58065        39.34016         1.54718
C         25.78014        41.56288         1.48844
C         24.80007        42.05809         2.52547
C         26.29315        43.97511         3.09292
C         25.00317        43.34554         3.15083
C         26.52136        45.18879         3.80862
C         25.43931        45.84140         4.48024
C         26.92441        47.66287         5.19729
C         25.68377        47.13895         5.08258
C         27.92563        23.08787        -0.31213
C         27.89422        24.50324        -0.37277
C         26.63528        25.21962        -0.35399
C         27.87337        27.35393        -0.54595
C         26.63825        26.63937        -0.43226
C         27.86128        28.78077        -0.61997
C         26.63352        29.49711        -0.55918
C         27.88195        31.61358        -0.62999
C         26.64855        30.93261        -0.52038
C         28.00146        33.09077        -0.40246
C         26.68962        33.79577        -0.22244
C         27.93699        35.91824        -0.50984
C         26.72363        35.18577        -0.12548
C         27.91777        37.35314        -0.29987
C         26.82787        38.00935         0.29824
C         28.07848        40.15288         0.49292
C         26.87582        39.42112         0.65160
C         28.22733        41.45349         1.06494
C         27.16765        42.12110         1.66256
C         28.62175        44.01695         2.33796
C         27.37064        43.37961         2.35600
C         28.85486        45.19046         3.11275
C         27.81797        45.76563         3.85792
C         29.35213        47.70335         4.37265
C         28.15657        46.87294         4.83050
C         29.54704        49.01734         4.91965
C         30.35191        23.08431        -0.41628
C         29.13207        22.40170        -0.31968
C         30.37048        24.50585        -0.47232
C         29.12068        25.21781        -0.44364
C         30.33721        27.37682        -0.59887
C         29.11897        26.65737        -0.53135
C         30.33791        28.78610        -0.77048
C         29.09592        29.48365        -0.75573
C         30.29449        31.61855        -1.11565
C         29.09064        30.90863        -0.83028
C         30.19409        33.01972        -1.59747
C         28.86253        33.77283        -1.46938
C         30.15999        36.00102        -1.70797
C         28.99852        35.26208        -1.13404
C         30.23283        37.48251        -1.45081
C         29.03165        38.16139        -0.82786
C         30.46129        40.28859        -0.47738
C         29.12970        39.60214        -0.37328
C         30.73980        41.42823         0.44591
C         29.58350        42.04418         1.15259
C         31.08589        43.92862         1.73607
C         29.67408        43.53354         1.37207
C         31.22858        44.90057         2.71469
C         30.18629        45.74808         3.18294
C         31.56632        47.90205         3.22836
C         30.40258        47.09726         3.64089
C         31.35843        49.41801         3.27333
C         30.53502        49.83101         4.46605
C         32.82910        20.45568        -1.51727
C         31.65825        21.11472        -1.23100
C         32.86328        23.10018        -0.54995
C         31.62451        22.29406        -0.29414
C         32.84480        24.49780        -0.64371
C         31.60770        25.20710        -0.53088
C         32.84904        27.39680        -0.81188
C         31.63284        26.68692        -0.26987
C         32.81195        28.79982        -1.00119
C         31.56265        29.51941        -0.94699
C         32.75988        31.66247        -1.42460
C         31.52970        30.93000        -1.18309
C         32.75285        33.06509        -1.62018
C         31.47134        33.76171        -1.89416
C         32.73707        35.96031        -1.63418
C         31.46893        35.27595        -2.13903
C         32.74130        37.38644        -1.44649
C         31.57601        38.12983        -1.36637
C         32.97358        40.22146        -0.86425
C         31.65571        39.56906        -1.03577
C         33.04790        41.59585        -0.47006
C         31.98660        42.20427         0.23974
C         33.40153        44.16016         0.70761
C         32.18879        43.41177         0.95521
C         33.56591        45.51502         1.18571
C         32.94515        46.01198         2.31123
C         33.71437        48.27193         1.96859
C         32.68376        47.41833         2.54688
C         33.84986        49.64274         2.47179
C         32.63439        50.24778         3.16692
C         33.57598        52.47471         2.64534
C         32.53284        51.70782         3.07296
C         35.38006        18.81503        -1.45738
C         35.32566        20.24768        -1.26805
C         34.09579        20.95592        -1.13202
C         35.35526        23.10464        -0.90005
C         34.14590        22.32747        -0.48694
C         35.31902        24.52513        -0.96449
C         34.08551        25.23754        -0.82794
C         35.28117        27.38567        -1.18653
C         34.06854        26.66954        -0.93881
C         35.25758        28.81140        -1.31741
C         34.02215        29.52501        -1.25324
C         35.22504        31.66384        -1.60853
C         34.00855        30.95022        -1.42334
C         35.21479        33.09898        -1.69300
C         33.96468        33.80308        -1.67655
C         35.21136        35.96707        -1.81879
C         33.95030        35.24664        -1.68252
C         35.23810        37.35162        -1.74343
C         34.07684        38.03474        -1.09104
C         35.32050        40.25795        -1.50607
C         34.12373        39.53368        -1.21867
C         35.34520        41.64876        -1.32772
C         34.26658        42.31098        -0.67700
C         35.52682        44.45891        -0.56384
C         34.37427        43.65606        -0.20788
C         35.58938        45.79796        -0.20607
C         34.34647        46.47336         0.32931
C         35.72213        48.58090         0.59147
C         34.59927        47.78860         1.02332
C         35.81542        49.94647         0.98891
C         34.82889        50.53174         1.83606
C         35.84769        52.75174         1.55417
C         34.76940        51.92176         2.04702
C         35.83035        54.19727         1.67640
C         37.82702        18.77578        -1.24152
C         36.56359        18.11900        -1.37347
C         37.83150        20.25480        -1.53537
C         36.54372        20.95740        -1.18223
C         37.78846        23.10237        -1.13249
C         36.55028        22.38486        -1.07377
C         37.77253        24.51357        -1.20317
C         36.53867        25.23061        -1.17556
C         37.72677        27.35880        -1.48171
C         36.53367        26.67101        -1.26876
C         37.70567        28.79367        -1.74554
C         36.46049        29.53566        -1.55708
C         37.71576        31.65995        -1.67453
C         36.47566        30.94717        -1.65849
C         37.73308        33.11067        -2.03996
C         36.42565        33.81628        -1.83261
C         37.68950        35.90187        -2.08427
C         36.44677        35.22566        -1.97472
C         37.71011        37.31010        -2.43803
C         36.40183        38.10866        -2.20015
C         37.68063        40.25661        -2.24485
C         36.51537        39.57277        -1.98932
C         37.68124        41.75909        -2.47446
C         36.45948        42.45462        -1.87501
C         37.82577        44.64348        -1.73451
C         36.55993        43.89500        -1.47811
C         37.71293        46.06472        -1.43460
C         36.69111        46.61480        -0.61002
C         37.85079        48.82713        -0.60200
C         36.73711        48.00581        -0.22774
C         37.90899        50.19450        -0.27337
C         36.88589        50.76710         0.51135
C         38.14649        52.90599         0.59597
C         36.91315        52.15168         0.86929
C         38.15072        54.42179         0.86236
C         36.85666        54.98952         1.26791
C         40.30299        16.01671        -0.75093
C         39.12086        16.66916        -0.96393
C         40.27643        18.84921        -0.81350
C         39.04730        18.10549        -1.02040
C         40.25866        20.28195        -0.79323
C         39.05312        20.97775        -1.03816
C         40.21799        23.11631        -0.71849
C         39.02374        22.38457        -0.99428
C         40.17107        24.54566        -0.81618
C         39.01913        25.22281        -1.17602
C         40.21006        27.47559        -1.14130
C         39.04751        26.65416        -1.65667
C         40.24197        28.85739        -1.24504
C         39.02685        29.57449        -1.67713
C         40.12790        31.73033        -1.09632
C         38.95150        31.02355        -1.46168
C         40.05894        33.20838        -0.81767
C         38.90799        33.88711        -1.50036
C         40.16456        36.01705        -1.58516
C         38.92639        35.24904        -1.71720
C         40.21598        37.38052        -1.90857
C         39.01042        38.05117        -2.43915
C         40.21667        40.29238        -2.11153
C         38.97535        39.56212        -2.45759
C         40.18265        41.72841        -2.12175
C         38.99489        42.46929        -2.15247
C         40.30227        44.57334        -2.33774
C         38.98993        43.93534        -2.14090
C         40.41423        45.99620        -2.55614
C         38.61986        47.01470        -1.96453
C         40.16215        48.96207        -1.60605
C         38.88282        48.27315        -1.43205
C         40.22312        50.30103        -1.27129
C         38.93212        51.05053        -0.99065
C         40.30256        53.10803        -0.59475
C         39.16646        52.37051        -0.30599
C         40.34602        54.53884        -0.31536
C         39.23216        55.20987         0.23073
C         40.34648        57.35998        -0.02144
C         39.22803        56.62774         0.31337
C         42.73381        16.07639        -0.28076
C         41.52441        16.73928        -0.53853
C         42.70612        18.90259        -0.28998
C         41.49606        18.17056        -0.56391
C         42.66623        20.31207        -0.22262
C         41.45822        21.01190        -0.46831
C         42.64685        23.19576        -0.18505
C         41.42732        22.44255        -0.43314
C         42.64259        24.59912        -0.22234
C         41.36082        25.29815        -0.39375
C         42.67270        27.47335        -0.52820
C         41.36142        26.78460        -0.54700
C         42.67344        28.95206        -0.64262
C         41.38088        29.63240        -0.84277
C         42.56879        31.80272        -0.60435
C         41.33568        31.05006        -0.80738
C         42.58800        33.21386        -0.84059
C         41.37330        33.92369        -1.03446
C         42.62436        36.02820        -1.28595
C         41.38094        35.31404        -1.27426
C         42.64049        37.43961        -1.49530
C         41.42672        38.13625        -1.78974
C         42.68036        40.28755        -1.72215
C         41.42256        39.57520        -1.91888
C         42.72452        41.68576        -1.83337
C         41.51147        42.39109        -2.37729
C         42.75001        44.55129        -2.05983
C         41.49577        43.87033        -2.15216
C         42.76185        46.01871        -2.19407
C         41.49602        46.76068        -2.21326
C         42.72810        48.95522        -1.74984
C         41.45432        48.14368        -1.57848
C         42.71612        50.33885        -1.56007
C         41.46028        51.05559        -1.34267
C         42.66322        53.22740        -1.59923
C         41.45298        52.43677        -1.17047
C         42.70840        54.64381        -1.08693
C         41.52078        55.29150        -0.65463
C         42.73754        57.42724        -0.65793
C         41.53206        56.70428        -0.44884
C         43.91488        16.79132        -0.05695
C         45.18898        18.93672         0.12557
C         43.93938        18.19263        -0.05797
C         45.17125        20.35295         0.18916
C         43.84402        21.04700         0.36600
C         45.05022        23.24085         0.22621
C         43.87557        22.51870         0.05626
C         45.03020        24.65967         0.32088
C         43.81550        25.34891         0.07033
C         44.95293        27.50014         0.45000
C         43.82020        26.77858         0.08249
C         44.92435        29.00811         0.70250
C         43.61734        29.73586         0.24619
C         45.01485        31.78238        -0.38780
C         43.77918        31.12936        -0.31297
C         45.06579        33.17287        -0.67271
C         43.84078        33.90419        -0.86109
C         45.08466        36.01329        -1.16526
C         43.84589        35.31642        -1.08234
C         45.11344        37.42140        -1.26606
C         43.88668        38.14854        -1.40334
C         45.13175        40.28498        -1.30459
C         43.89605        39.56813        -1.47418
C         45.14541        41.72184        -1.39175
C         43.94421        42.41157        -1.67731
C         45.19029        44.59561        -1.65640
C         43.94666        43.86026        -1.81326
C         45.21558        45.98588        -1.67399
C         44.02535        46.77808        -1.99154
C         45.17262        48.90981        -1.46882
C         43.98361        48.24597        -1.72515
C         45.20850        50.34220        -1.35077
C         43.95834        51.07279        -1.43707
C         45.16271        53.21312        -1.27007
C         43.95384        52.47520        -1.37273
C         45.17344        54.61255        -1.26624
C         43.92295        55.35146        -1.14347
C         43.90809        56.76420        -0.94595
C         47.61440        19.00519         0.38608
C         46.44124        18.28699         0.19919
C         47.60677        20.41579         0.43180
C         46.36644        21.08431         0.30906
C         47.49496        23.31292         0.82030
C         46.38992        22.58133         0.08999
C         47.39114        24.66698         1.08019
C         46.19298        25.39182         0.71153
C         47.37714        27.56211         1.00207
C         46.15161        26.80290         0.77106
C         47.39525        28.96910         0.57503
C         46.22649        29.63176         0.24966
C         47.54341        31.74771        -0.24652
C         46.27816        30.95362        -0.48063
C         47.56508        33.13818        -0.56450
C         46.33488        33.82114        -0.81622
C         47.66294        36.00777        -1.10648
C         46.32597        35.22924        -1.21508
C         47.58485        37.45356        -0.91600
C         46.35948        38.14764        -1.11478
C         47.55217        40.31487        -0.60355
C         46.33009        39.56700        -1.07616
C         47.61295        41.75198        -1.05209
C         46.40504        42.44805        -1.28995
C         47.65682        44.57763        -1.29091
C         46.42600        43.86427        -1.43630
C         47.70052        45.99712        -1.36820
C         46.48591        46.76613        -1.79348
C         47.69431        48.88300        -1.24602
C         46.40226        48.11993        -1.08042
C         47.68991        50.30531        -1.23521
C         46.42962        51.01154        -1.20894
C         47.66097        53.16259        -1.64328
C         46.45748        52.49702        -0.93778
C         47.62886        54.65446        -1.40779
C         46.45404        55.30260        -1.24771
C         50.09286        20.57336         0.74007
C         48.82052        21.19699         0.68706
C         49.89755        23.29967         1.38655
C         48.73595        22.58025         0.97443
C         49.75879        24.64825         1.84996
C         48.44027        25.42074         1.88033
C         49.72320        27.73129         1.57837
C         48.51767        26.92519         1.46691
C         49.82522        29.03036         0.96629
C         48.66529        29.67031         0.49167
C         49.98329        31.75229         0.15684
C         48.71724        31.05826         0.12274
C         50.03184        33.14798        -0.18077
C         48.83161        33.85513        -0.52471
C         50.06155        36.02321        -0.54475
C         48.86681        35.27108        -0.69534
C         50.06857        37.42274        -0.62952
C         48.82190        38.16698        -0.74001
C         50.11256        40.26427        -1.12219
C         48.83316        39.55486        -0.78089
C         50.09363        41.74440        -0.85613
C         48.85719        42.44213        -0.98437
C         50.10270        44.57912        -0.93232
C         48.87319        43.87017        -1.05572
C         50.11767        46.00501        -1.01169
C         48.89071        46.70775        -1.19550
C         50.14080        48.85483        -1.25092
C         48.89518        48.16150        -1.23982
C         50.14535        50.27942        -1.36310
C         48.92644        50.99790        -1.30790
C         50.18270        53.04785        -1.96783
C         48.98890        52.50795        -1.22301
C         51.22506        21.27020         1.11664
C         52.33822        23.35975         1.92132
C         51.16196        22.63973         1.48182
C         52.19719        24.71030         2.33337
C         50.86748        25.18553         2.47256
C         52.16353        27.78692         2.07101
C         50.84159        27.32112         2.30230
C         52.27121        29.03258         1.42755
C         51.09902        29.71354         0.97384
C         52.50657        31.71869         0.31386
C         51.16057        31.05820         0.52144
C         52.44021        33.22017         0.37636
C         51.27641        33.85747        -0.04233
C         52.50695        36.06040         0.06865
C         51.36920        35.27831        -0.53235
C         52.49971        37.46585        -0.04889
C         51.30350        38.16552        -0.45161
C         52.53003        40.30038        -0.37505
C         51.32848        39.55791        -0.58328
C         52.55181        41.72682        -0.51280
C         51.30743        42.43905        -0.71282
C         52.55538        44.58540        -0.63506
C         51.32305        43.86984        -0.73818
C         52.56478        46.00908        -0.75631
C         51.34548        46.71808        -0.95516
C         52.60688        48.84259        -1.15323
C         51.36511        48.13965        -1.12171
C         52.61192        50.25152        -1.45310
C         51.39551        50.95926        -1.57466
C         51.33172        52.33888        -2.02388
C         54.68166        23.49263         2.53756
C         53.62652        22.76713         2.02406
C         54.58188        24.88585         2.80216
C         53.34000        25.56059         2.59173
C         54.57044        27.70206         2.54104
C         53.32803        26.99480         2.45244
C         54.66865        29.06074         2.14735
C         53.63819        29.61926         1.20461
C         54.72595        31.86221         1.50642
C         53.62138        31.12095         1.13342
C         54.75985        33.30067         1.26657
C         53.63579        33.95197         0.71062
C         54.82567        36.12328         0.88136
C         53.64713        35.38502         0.55522
C         54.85748        37.52866         0.66482
C         53.68961        38.20601         0.21915
C         54.93961        40.33894         0.16267
C         53.71598        39.61811         0.01073
C         54.98452        41.73660        -0.09305
C         53.76849        42.43818        -0.38421
C         55.00065        44.60552        -0.36653
C         53.78604        43.88053        -0.47886
C         54.98940        46.00977        -0.40968
C         53.79239        46.72668        -0.67702
C         55.07966        48.84138        -1.01313
C         53.82489        48.14383        -0.92711
C         55.05640        50.22501        -1.39184
C         53.88363        50.89955        -1.59400
C         56.89936        25.00168         3.75840
C         55.74187        25.63422         3.22376
C         56.90096        27.79897         3.37013
C         55.73138        27.04192         3.07154
C         56.93747        29.20076         3.10565
C         55.81964        29.82946         2.45304
C         57.02355        31.98127         2.47954
C         55.86720        31.22316         2.14261
C         57.07153        33.38993         2.19079
C         55.93522        34.04372         1.61126
C         57.17275        36.19605         1.65812
C         55.97981        35.44966         1.38316
C         57.22466        37.59872         1.37629
C         56.06752        38.26174         0.88324
C         57.34457        40.36483         0.71339
C         56.11652        39.65198         0.58605
C         57.40249        41.73724         0.29859
C         56.24479        42.41615        -0.05700
C         57.45005        44.55326         0.40736
C         56.33501        43.87888        -0.43793
C         57.49805        46.07122         0.17871
C         56.22710        46.79204        -0.19115
C         57.56562        48.80723        -0.73869
C         56.29285        48.17688        -0.70227
C         58.00471        25.73827         4.12568
C         59.18465        27.91811         4.25667
C         58.03842        27.14480         3.92497
C         59.21111        29.27223         4.01534
C         58.10356        29.94472         3.41723
C         59.29018        32.12966         3.40588
C         58.14337        31.35033         3.10489
C         59.34317        33.47067         3.10667
C         58.24373        34.13556         2.49746
C         59.49127        36.30627         2.43294
C         58.31018        35.54238         2.19873
C         59.55073        37.64822         2.14744
C         58.42478        38.34272         1.61225
C         59.64523        40.54391         1.58177
C         58.48189        39.72643         1.27901
C         59.76382        41.80596         1.11864
C         58.77235        42.35783         0.12170
C         59.89988        44.55211        -0.19430
C         58.75988        43.86675         0.10017
C         59.92552        45.97720        -0.32501
C         58.77224        46.72850        -0.19821
C         58.74319        48.12236        -0.50952
O         38.70379        53.47575         1.83424
O         41.04101        26.18415         0.76152
O         50.67468        26.32420         3.27117
O         30.50155        41.16779         1.88337
O         39.30535        46.63632        -3.10995
O         28.57055        39.25883        -1.68541
O         32.50101        45.10366         3.27784
O         33.75335        49.75665         3.94206
O         47.13530        35.53709        -2.39619
O         56.73917        46.75955         1.22219
O         30.71901        33.08943        -2.96551
O         30.83202        40.50324        -1.85859
O         43.06694        28.13907        -1.79390
O         35.92854        43.49181        -2.78248
O         39.19127        38.78364        -3.69049
O         29.80807        36.97211        -2.76660
O         36.83948        37.67794        -3.53274
O         38.47704        29.16294        -2.97188
O         42.76881        29.93207         1.38699
O         43.58618        46.47416        -3.39107
O         47.97304        25.42087         3.26008
H         48.66472        25.87648         3.79076
O         23.73393        31.24133        -1.92777
H         23.79019        32.21038        -2.07164
O         28.75705        33.26473         0.84535
H         28.21979        32.88995         1.57482
O         29.34928        44.11120         0.06477
H         29.27263        45.08248         0.17100
O         47.55225        52.94302        -3.06868
H         46.73236        53.38047        -3.38113
O         25.28638        42.12867         0.20411
H         25.88894        41.80870        -0.50215
O         47.37062        40.40872         0.87718
H         46.50737        40.84962         1.03263
O         41.52376        47.75156        -0.13693
H         41.53430        48.57938         0.39173
O         38.33014        51.38647        -2.29384
H         38.19582        50.54255        -2.77619
O         37.91009        20.34057        -3.02071
H         38.74390        19.89852        -3.28984
O         46.63942        47.02747        -3.22591
H         45.78319        46.84535        -3.67346
O         33.55029        46.80977        -0.85633
H         33.44894        45.98961        -1.38568
O         56.76979        43.98513        -1.82165
H         56.18188        43.42803        -2.37300
O         46.71091        22.73017        -1.34648
H         47.61444        22.37098        -1.47924
O         50.21023        40.16369        -2.60119
H         50.28316        39.21028        -2.82483
O         51.72105        35.14179        -1.96632
H         52.38497        34.42182        -2.03819
O         39.28100        26.54972        -3.10908
H         39.11710        27.45395        -3.48008
O         37.93669        33.08581        -3.51242
H         37.80315        34.00222        -3.84018
O         41.67839        42.27453        -3.84691
H         40.81808        42.50059        -4.26314
O         30.58699        49.77284         2.07887
H         29.71055        49.33945         2.15531
O         28.18458        33.68524        -2.73243
H         28.87671        33.72870        -3.43290
O         46.25859        47.82813         0.34391
H         46.21293        48.68318         0.82177
O         46.34674        30.56715        -1.91283
H         46.45521        31.39223        -2.43364
O         54.05581        29.15051        -0.15666
H         55.00667        29.37546        -0.25403
O         43.59899        21.00437         1.82646
H         43.53726        20.05989         2.08496
O         34.22749        37.80148         0.36275
H         34.30480        36.83227         0.49654
O         57.15700        44.30761         1.79815
H         56.76966        45.14326         2.15511
O         34.34590        22.04034         0.95138
H         33.47081        21.69892         1.27740
O         31.75637        26.81012         1.21793
H         31.78636        27.76932         1.42385
O         59.25394        41.93039        -1.19725
H         59.29788        40.95078        -1.18774
O         37.58562        41.88625        -3.92280
H         36.96427        42.63307        -4.10005
O         44.96487        29.14459         2.14937
H         44.03644        29.44642         2.38758
O         42.53709        53.37071        -3.06821
H         42.39460        52.47205        -3.43600
O         31.58271        35.40816        -3.57555
H         31.12600        36.24866        -3.82233
O         28.59053        46.21150         6.07622
H         29.38594        45.67950         5.85932
O         46.58027        52.63922         0.50841
H         47.54320        52.66563         0.73319
O         52.85919        31.42969        -1.09747
H         53.14307        30.47992        -1.11730
O         31.67136        21.76781         1.10319
H         31.39463        22.50063         1.69494
O         39.78239        33.31431         0.63446
H         40.50164        32.83651         1.10313
O         49.21601        52.85610         0.18837
H         50.04819        52.41856         0.46872
H         22.00319        26.81353        -0.23140
H         21.99142        29.28501        -0.34862
H         22.13441        31.07822         0.58029
H         22.28606        33.42047         1.18700
H         22.26289        35.34522         1.22292
H         22.39648        37.71176         1.74328
H         22.62078        39.42870         2.51098
H         22.89676        41.63799         3.46586
H         22.96650        43.56262         3.88805
H         23.33527        45.73790         4.97888
H         25.36338        23.44293        -0.19822
H         23.24512        24.67749        -0.16051
H         27.04588        48.64894         5.66834
H         24.81205        47.71062         5.43704
H         26.99483        22.51096        -0.24583
H         28.89308        49.36112         5.73357
H         29.13274        21.30587        -0.23474
H         30.67230        50.83514         4.89140
H         32.78377        19.53599        -2.12085
H         30.71949        20.77740        -1.69483
H         33.44967        53.56662         2.64651
H         31.57481        52.18552         3.32603
H         34.43681        18.25755        -1.54688
H         34.91054        54.68132         2.03361
H         36.52113        17.02011        -1.37534
H         36.72417        56.08108         1.26155
H         40.33062        14.91750        -0.72692
H         38.20701        16.07856        -1.11405
H         40.34902        58.45307         0.09579
H         38.33986        57.14560         0.70089
H         42.75214        14.97732        -0.25662
H         42.73622        58.51930        -0.52982
H         44.83621        16.22394         0.13120
H         44.83557        57.34427        -1.03791
H         48.55766        18.45186         0.48723
H         46.50285        17.19229         0.13641
H         48.56653        55.22666        -1.46908
H         46.46757        56.39582        -1.13866
H         50.19149        19.50998         0.48438
H         50.14605        54.07359        -2.36178
H         52.18479        20.73758         1.15324
H         52.22253        52.78851        -2.48590
H         55.65334        22.99462         2.65873
H         53.78292        21.71730         1.74321
H         56.00318        50.77084        -1.49922
H         53.92142        51.96689        -1.85066
H         56.90426        23.91423         3.91386
H         57.63348        49.86702        -1.01987
H         58.88142        25.23945         4.56334
H         60.05697        27.41909         4.70276
H         60.11722        29.83310         4.27864
H         60.16097        31.66700         3.88730
H         60.25349        34.02762         3.36149
H         60.38833        35.82107         2.83863
H         60.48993        38.18695         2.33007
H         60.42496        40.13700         2.24131
H         60.64590        42.41181         1.37351
H         60.82539        43.99502        -0.40086
H         60.86547        46.47044        -0.61171
H         59.70248        48.64273        -0.64802
