         324
 CSIRO Nanostructure Databank - Neutral Graphene Oxide Data Set
C         30.44541        57.19746         0.89588
C         30.44090        58.58177         0.85822
C         29.22471        59.33912         1.12375
C         30.47100        61.50653         1.07144
C         29.21976        60.68429         1.17082
C         32.92783        52.95080         0.85851
C         32.88420        54.34930         0.67873
C         31.67402        55.06663         0.79983
C         32.82450        57.16090         0.21230
C         31.64092        56.46166         0.64535
C         32.77906        58.57642         0.08627
C         31.63645        59.28871         0.49074
C         32.86759        61.40597         0.41760
C         31.68178        60.73434         0.59869
C         35.38066        48.68877         0.76712
C         35.38815        50.09712         0.82523
C         34.18098        50.84046         0.94552
C         35.38614        52.98849         0.71535
C         34.15701        52.25349         0.84519
C         35.36954        54.36454         0.41709
C         34.09573        55.06033         0.35037
C         35.24666        57.09847        -0.49839
C         34.03676        56.42274         0.03535
C         35.17312        58.57526        -0.79658
C         33.87346        59.35893        -0.61992
C         35.27542        61.38104        -0.02274
C         34.06120        60.73885        -0.02600
C         37.81935        44.35964         1.03643
C         37.80940        45.84381         0.74088
C         36.60773        46.53911         0.72145
C         37.82529        48.66951         0.54017
C         36.58760        47.96314         0.66357
C         37.83805        50.09960         0.59839
C         36.63949        50.79465         0.76125
C         37.93683        52.98494         0.76354
C         36.64407        52.25586         1.13508
C         37.87717        54.42982         0.36204
C         36.57665        55.10233         0.19667
C         37.76201        57.14991        -0.49689
C         36.57101        56.44783        -0.27633
C         37.76547        58.57284        -0.86603
C         36.45520        59.35411        -0.90561
C         37.71941        61.40344        -0.30829
C         36.50776        60.75460        -0.42787
C         40.19557        40.02520         0.28799
C         40.13468        41.43756         0.14424
C         38.97808        42.20843         0.34663
C         40.20407        44.34395         0.35653
C         39.02012        43.63319         0.46959
C         40.31528        45.77173         0.85527
C         39.03761        46.53941         0.59608
C         40.28163        48.66543         0.22637
C         39.04819        47.94183         0.44183
C         40.31147        50.04982         0.16499
C         39.09584        50.81826         0.40099
C         40.25943        52.88759        -0.37136
C         39.12528        52.19812         0.36603
C         40.30301        54.39481        -0.21735
C         39.10600        55.09221        -0.11874
C         40.31152        57.21212        -0.61431
C         39.08470        56.58534        -0.00313
C         40.25602        58.63681        -0.93468
C         38.99980        59.34433        -0.66426
C         40.22251        61.42597        -0.32938
C         38.98315        60.72998        -0.50659
C         42.71353        35.81038         0.74457
C         42.67753        37.16230         0.32284
C         41.44537        37.88683         0.34599
C         42.70071        39.99484         0.17490
C         41.39990        39.28254         0.23482
C         42.68224        41.46946        -0.02878
C         41.37029        42.15755        -0.20303
C         42.76306        44.24337         0.31670
C         41.41679        43.66634        -0.08511
C         42.76833        45.76064         0.24670
C         41.55966        46.45539         0.33832
C         42.77423        48.64008         0.37507
C         41.53892        47.89649        -0.10519
C         42.81008        50.09936         0.11691
C         41.57423        50.77809        -0.00580
C         42.79358        52.88197        -0.25730
C         41.58064        52.18686        -0.15794
C         42.83039        54.38449        -0.07880
C         41.53069        55.09494        -0.34437
C         42.77297        57.23542        -0.77122
C         41.53087        56.51249        -0.57032
C         42.78761        58.60853        -0.97481
C         41.55455        59.44459        -1.04131
C         42.62828        61.53750        -0.00235
C         41.48608        60.84726        -0.51309
C         45.24684        33.30862         1.92742
C         44.00540        33.91304         1.67199
C         45.15793        35.62819         0.32575
C         43.91892        35.10618         0.92513
C         45.13959        37.08822        -0.20550
C         43.90114        37.84378        -0.01120
C         45.15511        39.92029        -0.41299
C         43.94687        39.24480        -0.11019
C         45.15402        41.37327        -0.73292
C         43.87834        42.14663        -0.62992
C         45.24265        44.22659        -0.17846
C         43.88482        43.67843        -0.59171
C         45.29053        45.70188         0.04147
C         44.00874        46.42968         0.12205
C         45.36459        48.58816         0.34098
C         44.05830        47.86361         0.43808
C         45.33380        50.09304         0.13908
C         44.03158        50.79069        -0.00249
C         45.28854        52.90112        -0.43798
C         44.03102        52.18772        -0.23214
C         45.29375        54.29093        -0.65139
C         43.99276        55.04161        -0.83561
C         45.34500        57.19240        -1.13246
C         44.11057        56.54652        -0.49897
C         45.30486        58.63786        -1.22404
C         44.03695        59.22939        -1.26011
C         45.17906        61.40558         0.20135
C         43.94297        61.22386        -0.41436
C         46.44619        33.88066         1.51252
C         47.63181        35.76758         0.44667
C         46.45896        35.08311         0.75105
C         47.65473        37.10581        -0.08112
C         46.41331        37.81179        -0.30824
C         47.61968        39.91352        -0.88775
C         46.37894        39.20154        -0.51667
C         47.67822        41.38551        -0.88740
C         46.44285        42.12485        -0.78412
C         47.64563        44.28327        -0.96089
C         46.44590        43.50101        -0.64773
C         47.70666        45.74048        -0.66100
C         46.54068        46.44474        -0.24733
C         47.75062        48.57449        -0.37528
C         46.56125        47.84568        -0.11509
C         47.75032        50.01600        -0.47327
C         46.54729        50.75638        -0.36521
C         47.72370        52.87143        -0.84105
C         46.51978        52.17439        -0.56043
C         47.74168        54.27365        -0.91570
C         46.50066        54.98300        -0.88891
C         47.76081        56.92688        -1.65616
C         46.49422        56.39052        -1.24095
C         47.70889        59.08927        -1.42466
C         46.43138        59.55405        -1.05237
C         47.63164        61.30238         0.14841
C         46.38837        60.76523        -0.26396
C         48.86966        37.79366        -0.13780
C         50.14291        39.97406        -0.40485
C         48.96210        39.14816        -0.66953
C         50.14115        41.33350        -0.56706
C         48.91551        42.03946        -0.88171
C         50.25508        44.22698        -1.08842
C         48.95191        43.48546        -1.14669
C         50.21086        45.74374        -1.02858
C         48.92147        46.43864        -0.79215
C         50.19094        48.56652        -0.70703
C         48.95338        47.85129        -0.61330
C         50.17994        49.97963        -0.80510
C         48.97658        50.68016        -0.77780
C         50.24625        52.86139        -0.95077
C         48.96539        52.11353        -1.23480
C         50.22325        54.29523        -1.00766
C         49.01335        54.97986        -1.03563
C         50.22631        57.19824        -1.21589
C         48.99689        56.39906        -1.30223
C         50.18696        58.71735        -1.14090
C         48.92013        59.47785        -0.86855
C         50.10276        61.30839         0.28876
C         48.87974        60.69300        -0.11532
C         51.43230        42.07263        -0.24086
C         52.59511        44.27643        -0.32506
C         51.46074        43.55576        -0.56211
C         52.65431        45.72551        -0.41961
C         51.44616        46.45678        -0.65128
C         52.66130        48.59131        -0.46236
C         51.43543        47.85606        -0.64469
C         52.67553        49.97999        -0.58769
C         51.46924        50.68602        -1.15958
C         52.68356        52.88301        -0.68244
C         51.43877        52.16960        -0.87529
C         52.71884        54.28782        -0.77244
C         51.50861        55.02961        -1.32713
C         52.71569        57.25794        -0.93335
C         51.42016        56.53042        -1.03849
C         52.72394        58.69388        -0.55794
C         51.44921        59.43843        -0.71116
C         52.52895        61.37045         0.44123
C         51.34102        60.74248         0.00125
C         53.83052        46.42661        -0.14122
C         55.03552        48.56589         0.14545
C         53.87171        47.85504        -0.14819
C         55.04737        49.99995         0.17596
C         53.85043        50.72556        -0.27410
C         55.18182        52.82390        -0.19716
C         53.85876        52.12315        -0.35715
C         55.04656        54.30893         0.00831
C         53.92968        54.98916        -0.43983
C         55.20721        57.20153        -0.21292
C         53.97697        56.46236        -0.65449
C         55.16737        58.69949        -0.02606
C         53.85013        59.36001        -0.12180
C         54.94210        61.37893         0.84490
C         53.77673        60.73286         0.36757
C         56.13246        50.68815         0.68124
C         57.38515        52.87499         0.97853
C         56.05439        52.18018         0.88739
C         57.43100        54.25810         0.96127
C         56.16997        54.99619         0.67730
C         57.48691        57.19956         0.90439
C         56.22968        56.48776         0.60169
C         57.46938        58.59921         1.00411
C         56.27187        59.34964         0.71423
C         57.35680        61.50077         1.52483
C         56.16923        60.71216         1.01777
C         58.61113        55.00482         1.21552
C         59.81343        57.12226         1.64100
C         58.64651        56.42946         1.25028
C         59.81427        58.52843         1.79904
C         58.63105        59.28286         1.51017
C         59.74329        61.30845         2.25651
C         58.60370        60.67809         1.75872
C         60.96483        59.21472         2.28330
C         60.92344        60.57813         2.50460
O         50.43242        45.02595        -2.29850
O         55.72091        58.06346        -1.25137
O         45.41866        44.71007         1.19807
O         48.15830        43.90979        -2.28343
O         37.14514        59.03631        -2.13422
O         47.73339        58.09432        -2.41155
O         51.01162        59.42198        -2.12584
O         55.66987        55.83678         1.80025
O         43.28725        48.21586         1.65784
O         42.89231        40.94638         1.31055
O         38.19858        54.02003         1.79513
O         43.99405        60.55462        -1.66723
O         44.27723        41.63602        -1.93169
O         41.32827        43.00616        -1.38609
O         48.35041        39.31343        -1.99013
O         45.58984        49.48071         1.46761
O         45.04189        35.92474        -1.09179
O         35.04117        57.59807        -1.87562
O         53.62115        56.83908        -2.03011
O         40.80134        59.10910        -2.23643
O         42.96465        43.81135         1.67002
H         43.78402        44.24661         2.00810
O         43.08368        54.52784         1.36590
H         42.31905        54.14458         1.84635
O         37.89031        44.23580         2.47896
H         38.02995        43.29010         2.69496
O         48.92711        52.01378        -2.71693
H         49.02603        52.92573        -3.06909
O         57.00803        62.21129         2.72686
H         56.86362        61.55410         3.43807
O         51.66339        54.94415        -2.79101
H         52.40772        55.55395        -3.01633
O         55.90696        52.64838        -1.45576
H         55.31411        52.92068        -2.18788
O         52.54207        41.41885        -0.86893
H         52.43955        41.50735        -1.83893
O         41.64937        47.90294        -1.57280
H         40.97053        47.29461        -1.93422
O         44.35582        56.76017         0.91852
H         43.82471        56.09805         1.42773
O         40.43484        45.70975         2.31413
H         39.61526        45.27186         2.65015
O         43.64630        54.94056        -2.23761
H         44.38971        55.29569        -2.76857
O         36.58642        52.22518         2.60065
H         37.01638        53.05758         2.90944
O         39.15746        56.91122         1.45551
H         38.79270        56.13948         1.94484
O         51.57694        50.58925        -2.62156
H         50.75366        50.99499        -2.98652
O         30.25710        62.65661         0.23749
H         30.16610        62.34800        -0.68726
O         39.93186        52.69906        -1.79455
H         40.07844        51.75400        -2.01332
O         33.35717        59.59713        -1.96375
H         33.60996        58.80960        -2.49955
O         55.36109        52.38518         2.16054
H         55.98141        52.16184         2.88513
O         43.66138        44.17819        -1.92301
H         43.81974        43.43319        -2.54876
H         29.53001        56.65149         1.16810
H         28.28984        58.77303         1.25502
H         30.68893        61.91268         2.10206
H         28.27971        61.22986         1.34109
H         31.99254        52.39714         1.02797
H         30.75387        54.52933         1.07312
H         32.91698        62.48385         0.63469
H         34.42646        48.14676         0.84206
H         33.22843        50.29741         1.03608
H         35.32853        62.41794         0.34472
H         36.86261        43.88472         0.67709
H         35.65740        45.99542         0.83027
H         37.73406        62.45697         0.00920
H         39.25612        39.47654         0.45745
H         38.02805        41.69748         0.56986
H         40.17707        62.47190         0.01037
H         41.77878        35.35363         1.10344
H         40.51011        37.32654         0.49484
H         42.46602        62.34079         0.73237
H         45.27348        32.38164         2.51748
H         43.08741        33.46659         2.07994
H         45.24905        62.05235         1.08803
H         47.40295        33.41964         1.79635
H         48.59540        35.31722         0.72971
H         47.62861        62.24320         0.71847
H         49.78134        37.31613         0.25147
H         51.05550        39.47871        -0.03994
H         50.06371        62.26432         0.83186
H         51.60115        41.96357         0.86841
H         53.49596        43.74883         0.02393
H         52.46160        62.36510         0.90701
H         54.75207        45.87057         0.08784
H         55.95823        48.02290         0.39963
H         54.86955        62.43201         1.15374
H         56.96963        50.12885         1.12899
H         58.29995        52.29202         1.16696
H         57.58959        62.29214         0.75991
H         59.53441        54.45607         1.45522
H         60.72335        56.55420         1.88565
H         59.71551        62.38762         2.46239
H         61.88016        58.64311         2.49348
H         61.81108        61.10089         2.88735
