         630
 CSIRO Nanostructure Databank - Neutral Graphene Oxide Data Set
C         23.28487        27.40652         2.52033
C         23.25199        28.77254         2.34800
C         23.18221        31.68039         1.95118
C         23.13894        33.04349         1.75705
C         23.06586        35.94408         1.18230
C         23.04493        37.30766         0.98099
C         23.05896        40.24083         0.61323
C         23.04656        41.61552         0.45127
C         23.02270        44.58138         0.51682
C         23.04510        45.95889         0.52185
C         25.71812        24.57775         2.34874
C         24.54051        25.26911         2.52115
C         25.69216        27.38418         2.04308
C         24.49773        26.68191         2.36506
C         25.65344        28.80303         1.87339
C         24.42487        29.50741         2.01482
C         25.57727        31.63868         1.46914
C         24.39099        30.94015         1.81454
C         25.53608        33.06540         1.29280
C         24.30855        33.77936         1.42834
C         25.50440        35.92345         1.06043
C         24.28286        35.20718         1.22336
C         25.46866        37.34285         0.97991
C         24.25147        38.06149         0.89323
C         25.50669        40.23278         0.69291
C         24.26098        39.50445         0.73870
C         25.50465        41.68010         0.49185
C         24.24006        42.38636         0.37799
C         25.43355        44.55321         0.02431
C         24.19983        43.80792         0.29392
C         25.47599        46.01451         0.19249
C         24.26550        46.70446         0.37065
C         25.45696        48.82267         0.16960
C         24.28300        48.13046         0.37691
C         28.21716        23.11007         1.88745
C         28.16577        24.52624         1.82057
C         26.93148        25.24798         2.02073
C         28.12323        27.37230         1.57077
C         26.91741        26.66354         1.88014
C         28.08866        28.79274         1.39869
C         26.85759        29.50439         1.54280
C         28.00174        31.58022         0.92892
C         26.81824        30.91249         1.33089
C         27.90187        32.99570         0.54886
C         26.71617        33.77847         0.92772
C         27.98433        35.88742         0.67158
C         26.74339        35.18978         0.89255
C         28.04198        37.34598         0.91530
C         26.71815        38.10334         1.06733
C         28.01808        40.23711         0.87831
C         26.71518        39.54526         0.82819
C         28.00679        41.74636         0.75314
C         26.70777        42.38292         0.47691
C         27.97462        44.58214         0.52264
C         26.74977        43.79593         0.09902
C         27.95464        46.01986         0.06114
C         26.71615        46.72205         0.08178
C         27.94777        48.85818        -0.16477
C         26.70440        48.15148         0.01627
C         27.99333        50.28228        -0.27022
C         30.60544        23.10134         1.39094
C         29.39216        22.42200         1.66599
C         30.59672        24.52390         1.35652
C         29.36886        25.23646         1.54199
C         30.56270        27.37592         1.16977
C         29.34957        26.66456         1.42847
C         30.53474        28.79210         1.00829
C         29.29015        29.49505         1.08499
C         30.47450        31.61611         0.58388
C         29.24214        30.90168         0.83716
C         30.47308        33.01988         0.41531
C         29.20069        33.74311         0.27061
C         30.43101        35.88361         0.33022
C         29.18067        35.20204         0.42583
C         30.38311        37.33703         0.03930
C         29.20512        38.11660         0.43841
C         30.42825        40.25045         0.08485
C         29.24199        39.50114         0.46265
C         30.41948        41.69177         0.01003
C         29.24033        42.44036         0.29176
C         30.41057        44.54415        -0.17308
C         29.23112        43.83158         0.16691
C         30.40481        45.97809        -0.25191
C         29.17160        46.70738        -0.14134
C         30.41619        48.84283        -0.43927
C         29.16944        48.14012        -0.25917
C         30.42958        50.28769        -0.52137
C         29.17833        50.96148        -0.44430
C         33.03316        20.29167         0.75739
C         31.86198        20.97183         1.04244
C         33.04978        23.10190         0.94729
C         31.83285        22.38258         1.13094
C         33.04902        24.53314         0.99772
C         31.81886        25.24268         1.14623
C         33.02212        27.38581         0.88405
C         31.80210        26.66784         1.07254
C         32.99827        28.80485         0.73784
C         31.75179        29.50601         0.77639
C         32.94939        31.64694         0.43848
C         31.72477        30.92206         0.60332
C         32.93667        33.06347         0.34820
C         31.68295        33.75285         0.36909
C         32.91961        35.92094         0.33546
C         31.63692        35.18506         0.29256
C         32.92937        37.40805         0.15362
C         31.65039        38.09419        -0.16471
C         32.87350        40.21264        -0.40189
C         31.64709        39.56442        -0.13564
C         32.83144        41.65398        -0.84363
C         31.59543        42.40157        -0.37730
C         32.86164        44.51199        -0.82954
C         31.59281        43.79557        -0.43608
C         32.85789        45.98824        -0.54702
C         31.63300        46.69042        -0.45500
C         32.88173        48.82264        -0.95790
C         31.61697        48.11974        -0.53192
C         32.90338        50.29979        -0.64448
C         31.67018        50.99954        -0.59884
C         32.87767        53.14426        -0.66909
C         31.71734        52.45138        -0.65267
C         35.47888        18.89299        -0.01115
C         35.48158        20.27298         0.24283
C         34.25301        20.97741         0.56447
C         35.50075        23.11168         0.57710
C         34.26422        22.39335         0.68655
C         35.49575        24.51220         0.75277
C         34.28369        25.24256         0.89750
C         35.47185        27.41932         0.70353
C         34.27190        26.68565         0.85805
C         35.46090        28.82220         0.49410
C         34.21582        29.52414         0.52825
C         35.41854        31.65461         0.19869
C         34.19848        30.94299         0.38894
C         35.40504        33.07759         0.06765
C         34.17281        33.78432         0.17448
C         35.36448        35.92530        -0.15442
C         34.17896        35.19964         0.10485
C         35.33361        37.35979        -0.36261
C         34.16606        38.08612        -0.25869
C         35.34301        40.23281        -0.60316
C         34.10557        39.51507        -0.48616
C         35.32895        41.67174        -0.46442
C         34.11870        42.35708        -0.49011
C         35.37753        44.55300        -0.12010
C         34.05787        43.78831        -0.24256
C         35.36537        45.99013        -0.36208
C         34.10896        46.69815        -0.47452
C         35.36335        48.83166        -0.17602
C         34.11534        48.08802        -0.52709
C         35.36318        50.26434        -0.63211
C         34.13981        50.97850        -0.64036
C         35.37904        53.10792        -1.18002
C         34.20597        52.48136        -0.44126
C         35.44460        54.45834        -1.52395
C         37.87494        18.89031        -0.42229
C         36.65199        18.22269        -0.35864
C         37.92466        20.28827        -0.16891
C         36.71530        20.99156         0.14441
C         37.97110        23.11387         0.22049
C         36.73597        22.40730         0.33254
C         38.01884        24.52632         0.42375
C         36.78447        25.21047         0.84031
C         37.99134        27.42826         0.40442
C         36.76707        26.73670         0.82235
C         37.94504        28.83089         0.20688
C         36.68842        29.53754         0.28577
C         37.87936        31.66912        -0.09954
C         36.66243        30.94616         0.13650
C         37.86526        33.08702        -0.25306
C         36.61883        33.80543        -0.14458
C         37.84219        35.95699        -0.39519
C         36.60108        35.21326        -0.26609
C         37.81297        37.34334        -0.51357
C         36.55229        38.04603        -0.93012
C         37.79324        40.24413        -0.71536
C         36.57551        39.53998        -0.68836
C         37.80997        41.68046        -0.63507
C         36.58789        42.39153        -0.41450
C         37.83827        44.50815        -0.49408
C         36.61874        43.79520        -0.32063
C         37.83903        45.93407        -0.52660
C         36.60121        46.66733        -0.48305
C         37.84126        48.78211        -0.62352
C         36.62351        48.08526        -0.52119
C         37.83924        50.21529        -0.77728
C         36.59635        50.90667        -0.84927
C         37.96376        53.06841        -1.35171
C         36.56983        52.29880        -1.32057
C         37.90962        54.53917        -1.40114
C         36.65974        55.13646        -1.70684
C         40.34219        16.03688        -0.55210
C         39.16870        16.70532        -0.51682
C         40.39142        18.88381        -0.64557
C         39.09798        18.15850        -0.92244
C         40.40813        20.28580        -0.45608
C         39.16883        21.00216        -0.24422
C         40.42488        23.12876        -0.12907
C         39.18727        22.40571        -0.05884
C         40.44309        24.54658         0.01270
C         39.21162        25.25572         0.27838
C         40.41408        27.44126         0.10634
C         39.20150        26.70808         0.28415
C         40.39260        28.83150        -0.03410
C         39.15590        29.53615        -0.03613
C         40.28506        31.67438        -0.57226
C         39.11289        30.97013        -0.21824
C         40.28009        33.06949        -0.73947
C         39.06395        33.78555        -0.53144
C         40.26280        35.90263        -0.89231
C         39.08656        35.23111        -0.56564
C         40.36864        37.31980        -0.62739
C         39.03664        38.10879        -0.40795
C         40.27095        40.19840        -0.89225
C         39.06278        39.54450        -0.71593
C         40.25458        41.66215        -1.25822
C         39.02729        42.38453        -0.77060
C         40.31720        44.50303        -0.71537
C         39.06254        43.78922        -0.67451
C         40.31138        45.91108        -0.60857
C         39.07218        46.63822        -0.58972
C         40.31402        48.78193        -0.52852
C         39.07798        48.06082        -0.61669
C         40.29150        50.20106        -0.51129
C         39.09182        50.91692        -0.76372
C         40.31779        53.08024        -0.57753
C         39.12598        52.35125        -0.84937
C         40.19787        54.57772        -0.36324
C         39.09690        55.26181        -1.16457
C         40.34352        57.38015        -1.32866
C         39.19488        56.65806        -1.46759
C         42.79506        16.02632        -0.97327
C         41.59086        16.72754        -0.79823
C         42.85441        18.84686        -0.83085
C         41.60586        18.15729        -0.76654
C         42.88326        20.26965        -0.65145
C         41.64984        20.98549        -0.43598
C         42.87083        23.13834        -0.36939
C         41.65606        22.41941        -0.30005
C         42.88905        24.55141        -0.29976
C         41.67547        25.24663        -0.07086
C         42.99380        27.45484        -0.17293
C         41.69934        26.70480         0.13726
C         42.91313        28.88031        -0.49678
C         41.67634        29.64720        -0.06977
C         42.73509        31.65327        -1.17970
C         41.47708        30.85368        -0.98149
C         42.63203        33.06122        -1.47578
C         41.46648        33.75407        -1.21907
C         42.71710        35.95307        -1.53702
C         41.38577        35.21120        -1.62281
C         42.74262        37.34259        -1.33862
C         41.54415        38.08563        -1.04057
C         42.76002        40.23065        -1.19027
C         41.52805        39.48453        -1.00947
C         42.75727        41.63817        -1.10871
C         41.55153        42.37476        -0.96949
C         42.81052        44.49806        -0.66914
C         41.55949        43.77734        -0.81068
C         42.76447        45.89428        -0.42115
C         41.55055        46.63467        -0.49264
C         42.79268        48.79125        -0.28573
C         41.54495        48.05736        -0.42380
C         42.79417        50.22611        -0.20744
C         41.49483        50.94858         0.00765
C         42.77993        53.11942        -0.31615
C         41.52290        52.41623        -0.34152
C         42.80437        54.53998        -0.45227
C         41.54168        55.30778        -0.40330
C         42.88156        57.30394        -1.25819
C         41.58663        56.76018        -0.83265
C         43.99443        16.70622        -1.14917
C         45.29064        18.84407        -1.26974
C         44.05318        18.12061        -1.07971
C         45.32780        20.25511        -1.03372
C         44.12097        20.94139        -0.67956
C         45.25809        23.07706        -1.16944
C         44.18628        22.40279        -0.31219
C         45.26405        24.58345        -1.05345
C         44.12254        25.28495        -0.60141
C         45.29780        27.39795        -1.15026
C         44.15338        26.69354        -0.66927
C         45.27583        28.83742        -1.21550
C         44.01683        29.54433        -0.98585
C         45.11931        31.66927        -1.73653
C         43.93763        30.97576        -1.25741
C         44.93914        32.87197        -2.35693
C         43.68154        33.71037        -2.36485
C         45.27106        35.96922        -1.81153
C         43.92987        35.23544        -2.01658
C         45.18799        37.26274        -0.99021
C         43.97594        38.08828        -1.29956
C         45.27349        40.19918        -1.18236
C         44.00321        39.48472        -1.24949
C         45.29573        41.66227        -1.46525
C         43.97313        42.44083        -1.51618
C         45.29705        44.48066        -0.78159
C         44.05333        43.81414        -0.86727
C         45.32031        45.89623        -0.33495
C         44.00514        46.62636        -0.15901
C         45.25021        48.79676         0.23577
C         43.99289        48.09067        -0.17696
C         45.24526        50.27147        -0.05280
C         44.00724        50.95364        -0.16462
C         45.24371        53.10976        -0.22244
C         44.00338        52.40114        -0.23545
C         45.25898        54.52641        -0.38732
C         44.02288        55.23312        -0.58240
C         44.02479        56.61058        -1.03187
C         47.63299        18.90397        -1.94815
C         46.46605        18.19886        -1.72087
C         47.70550        20.29902        -1.69877
C         46.56175        20.95533        -1.22351
C         47.67122        23.11513        -1.80427
C         46.65003        22.43806        -0.91582
C         47.38758        24.40602        -2.18257
C         46.36914        25.25682        -1.59236
C         47.71551        27.42778        -1.71869
C         46.47422        26.69214        -1.56136
C         47.71809        28.84127        -1.50703
C         46.47146        29.54127        -1.41630
C         47.75566        31.76544        -1.35748
C         46.44138        31.03676        -1.40337
C         47.94213        33.21605        -1.64889
C         46.86089        34.01655        -2.15078
C         47.75764        36.03604        -1.21124
C         46.58869        35.28715        -1.69199
C         47.63572        37.39987        -0.68209
C         46.46149        38.07108        -0.86661
C         47.72956        40.20157        -0.66782
C         46.45225        39.52459        -0.87074
C         47.91302        41.62913        -1.13814
C         46.59975        42.40484        -1.32702
C         47.78848        44.53934        -0.68891
C         46.55618        43.85220        -0.97789
C         47.81046        45.97105        -0.54199
C         46.51874        46.72143        -0.76593
C         47.71410        48.81698        -0.04521
C         46.52412        48.11843        -0.19979
C         47.70569        50.25643         0.11370
C         46.47180        50.97056         0.01005
C         47.70566        53.11365         0.04038
C         46.47899        52.40458        -0.06476
C         47.68080        54.53236        -0.08384
C         46.50514        55.20874        -0.31664
C         50.18438        20.36186        -2.01686
C         48.95985        21.04064        -1.92571
C         50.18346        23.18565        -2.14744
C         48.94225        22.46093        -2.04377
C         50.25095        24.62850        -2.07431
C         49.15560        25.46162        -2.36629
C         50.21074        27.42418        -1.47180
C         48.99835        26.77381        -1.86390
C         50.17137        28.81950        -1.17925
C         48.97293        29.54587        -1.29687
C         50.15992        31.67348        -0.78638
C         49.00684        30.98612        -1.16405
C         50.21386        33.11380        -0.71053
C         49.05826        33.85202        -1.13128
C         50.18574        35.98096        -0.35603
C         49.07567        35.31811        -1.06700
C         50.11868        37.34913        -0.07173
C         48.78260        38.04609         0.04443
C         50.07076        40.21312         0.17422
C         48.84873        39.52682        -0.21618
C         50.05468        41.64349         0.16752
C         48.96815        42.37149        -0.35492
C         50.25120        44.48314        -0.17306
C         48.97218        43.78184        -0.41291
C         50.26585        45.99693        -0.15049
C         48.97512        46.69651        -0.24752
C         50.17775        48.82072         0.24414
C         48.97302        48.11129        -0.04907
C         50.16581        50.24232         0.38426
C         48.93078        50.96461         0.24839
C         50.16179        53.06726         0.50919
C         48.93163        52.39265         0.26735
C         51.38779        21.05853        -2.08606
C         52.68036        23.17029        -1.85013
C         51.41808        22.46441        -2.08434
C         52.64455        24.53733        -1.48017
C         51.44671        25.28726        -1.61893
C         52.71724        27.42882        -1.35197
C         51.42720        26.69505        -1.41264
C         52.70959        28.82609        -0.88956
C         51.39867        29.44560        -0.66019
C         52.65304        31.65361        -0.29935
C         51.37205        30.94095        -0.39428
C         52.62202        33.06669        -0.14806
C         51.38980        33.80080        -0.34834
C         52.54373        35.95191         0.21101
C         51.38169        35.24169        -0.18298
C         52.49367        37.32311         0.50031
C         51.27409        38.04480         0.36392
C         52.47821        40.16379         0.87613
C         51.22980        39.48291         0.55886
C         52.44964        41.61726         1.15253
C         51.16769        42.37944         0.79063
C         52.37099        44.53653         1.31421
C         51.31193        43.79606         0.54718
C         52.53945        45.98200         0.89872
C         51.42583        46.69204         0.44846
C         52.60362        48.81495         0.78559
C         51.40420        48.11372         0.46393
C         52.58464        50.23896         0.92694
C         51.37237        50.94882         0.69065
C         51.32617        52.37568         0.74457
C         55.11764        23.15013        -1.44498
C         53.92890        22.51390        -1.88387
C         55.11086        24.41917        -0.92004
C         53.83812        25.20478        -0.84953
C         55.28109        27.36764        -0.93580
C         54.00078        26.65789        -1.30665
C         55.17560        28.83988        -0.69454
C         53.88776        29.50283        -0.58435
C         55.08183        31.65342        -0.05390
C         53.86759        30.93457        -0.29369
C         55.03046        33.03769         0.23266
C         53.81752        33.74658         0.16567
C         55.06074        35.93235         0.68222
C         53.82966        35.22610         0.21945
C         54.98392        37.34553         1.09169
C         53.63877        38.00031         1.21954
C         55.00174        40.20606         0.96873
C         53.67005        39.48966         1.02074
C         54.95555        41.65017         1.42263
C         53.71425        42.38503         1.31509
C         54.86388        44.52638         1.80409
C         53.67090        43.76448         1.40092
C         54.95569        45.96756         1.52774
C         53.76951        46.67723         1.13757
C         55.10269        48.83739         0.97397
C         53.80202        48.08242         0.99136
C         54.94090        50.20517         1.58963
C         53.76975        50.87487         1.46284
C         56.43463        24.51909         1.19818
C         56.34247        24.99847        -0.24028
C         57.33438        27.17345         0.64961
C         56.41050        26.52921        -0.32543
C         57.82480        28.46883         0.43787
C         56.31549        29.61036        -0.53004
C         57.50253        31.50342         0.58161
C         56.33644        30.94890        -0.01589
C         57.57137        32.97314         0.69672
C         56.28305        33.76650         0.49700
C         57.44460        35.78784         1.47630
C         56.14770        35.05672         1.27910
C         57.35806        37.22149         1.81378
C         56.14160        38.01501         1.47405
C         57.40145        40.13912         1.76608
C         56.17508        39.43698         1.54738
C         57.40919        41.57788         1.76254
C         56.15334        42.29366         1.70561
C         57.44019        44.47588         1.91915
C         56.16673        43.73864         2.00783
C         57.42777        45.89669         1.87509
C         56.20479        46.64180         1.66760
C         57.52664        48.70637         1.56160
C         56.28910        48.04823         1.47102
C         57.03298        25.24384         2.16366
C         58.27888        27.30284         2.88680
C         57.57072        26.57564         1.90807
C         58.65475        28.63225         2.67828
C         58.38951        29.27015         1.44865
C         59.52992        31.40850         1.94932
C         58.51642        30.73508         1.26503
C         59.61525        32.82322         2.02859
C         58.65072        33.62805         1.45898
C         59.86760        35.82746         1.77793
C         58.63140        35.08918         1.59836
C         59.89446        37.17903         1.90848
C         58.65848        37.96251         2.07912
C         59.82623        40.16959         2.07806
C         58.63841        39.44283         1.95919
C         59.82773        41.56272         2.05514
C         58.63078        42.29149         1.91861
C         59.87594        44.47730         1.96545
C         58.65127        43.75434         1.92455
C         59.88611        45.85340         1.98699
C         58.67406        46.59310         1.90866
C         58.69936        48.00536         1.80096
O         30.91077        37.58481        -1.33172
O         48.78962        36.03488        -2.31567
O         44.61558        35.99289        -3.08760
O         36.92831        25.98915         2.07940
O         46.00312        33.41165        -3.06463
O         28.16601        41.10457         2.06080
O         57.81569        37.48956         3.19054
O         41.57112        56.38347         0.60311
O         57.58360        29.06437        -0.81045
O         57.26270        33.71708        -0.55326
O         37.34973        52.47763        -2.53257
O         43.08473        33.66029        -3.64801
O         55.35246        44.14599         3.14573
O         39.89266        37.72048         0.70248
O         26.18214        44.11358        -1.19104
O         54.82653        35.76684        -0.75630
O         48.15179        24.97311        -3.21753
O         46.91958        31.59407        -0.11219
O         51.19621        29.97763         0.70143
O         46.07850        42.04214        -2.66687
O         42.60203        27.14183         1.22215
O         27.55212        37.73046         2.23597
O         51.47013        41.94450         2.19228
O         32.97590        36.84625         1.50708
O         44.82418        46.10021         1.00869
O         34.53727        44.20050         1.05791
O         56.45373        26.95434        -1.71512
O         28.35821        33.25492        -0.82803
O         53.50702        27.07812        -2.59317
O         50.67825        45.27966        -1.37167
O         45.25066        48.70164         1.71991
H         45.16658        47.73764         1.92599
O         33.04336        44.38170        -2.27641
H         32.20903        44.64852        -2.71596
O         43.68594        42.72437        -2.92527
H         44.56121        42.83325        -3.36963
O         41.06381        35.26163        -3.04765
H         41.77457        34.70527        -3.51030
O         46.33941        46.86495        -2.22325
H         47.17920        47.21002        -2.59436
O         57.51787        24.50248        -0.92281
H         57.61117        25.03400        -1.74379
O         36.45630        37.90019        -2.39471
H         36.51735        36.94319        -2.60213
O         55.67717        34.65633         2.60167
H         55.69234        35.44534         3.18559
O         27.89026        44.62635         1.98524
H         28.73947        44.97474         2.32945
O         41.15404        30.29583        -2.29706
H         41.18490        31.03165        -2.94614
O         48.44761        37.88923         1.47878
H         47.58303        38.32696         1.63080
O         44.57994        22.47626         1.10085
H         43.85462        22.08635         1.63321
O         55.40452        49.08254        -0.45746
H         54.63987        49.57144        -0.83096
O         40.14625        41.70747        -2.73300
H         41.04313        41.54849        -3.10084
O         39.71483        54.66605         1.01948
H         40.08343        55.51017         1.37796
O         38.95636        18.15091        -2.39514
H         39.75805        17.71780        -2.75907
O         48.52975        41.50761        -2.45604
H         47.79255        41.38906        -3.10044
O         53.53398        25.36928         0.58945
H         53.31179        24.48442         0.95007
O         32.88211        48.74454        -2.44381
H         32.06219        49.18510        -2.75476
O         47.10746        22.62593         0.43889
H         46.36067        22.40996         1.04698
O         44.95824        36.76588         0.38343
H         44.70780        37.52778         0.94779
O         34.52789        52.67419         0.98673
H         33.83081        52.21903         1.50578
O         53.30464        37.82595         2.66223
H         52.42505        38.23655         2.81276
O         44.88800        22.77061        -2.53955
H         45.54168        23.19361        -3.13710
O         32.71703        41.60424        -2.30684
H         33.51131        41.14354        -2.65208
O         35.36921        48.91156         1.31071
H         36.21843        49.32729         1.57428
O         51.85074        44.62054         2.69771
H         51.74810        43.68786         3.01039
O         41.30401        50.93599         1.48849
H         40.63001        51.61790         1.70117
O         41.92209        30.10566         1.28258
H         42.15431        29.31362         1.81713
O         55.28190        40.28237        -0.48630
H         56.17349        40.67868        -0.59141
H         22.36504        26.86033         2.77437
H         22.29317        29.29314         2.46975
H         22.25115        31.16436         2.21913
H         22.17927        33.56311         1.87965
H         22.10759        35.41605         1.27899
H         22.07259        37.81440         0.92267
H         22.09435        39.71667         0.64031
H         22.07486        42.11829         0.35147
H         22.06578        44.07055         0.69373
H         22.10973        46.51566         0.67740
H         25.71034        23.48701         2.47344
H         23.61608        24.73123         2.77623
H         25.42148        49.92015         0.14446
H         23.33905        48.67636         0.51731
H         27.30792        22.53420         2.10331
H         27.06269        50.86238        -0.21514
H         29.37321        21.32558         1.71751
H         29.14256        52.05671        -0.51437
H         32.99634        19.19651         0.69187
H         30.94219        20.38935         1.18294
H         32.84579        54.24179        -0.72918
H         30.77374        53.00818        -0.73980
H         34.54344        18.32017         0.02568
H         34.52360        55.05928        -1.54056
H         36.59007        17.15378        -0.60185
H         36.60963        56.22004        -1.88125
H         40.37627        14.95381        -0.35948
H         38.23934        16.15300        -0.31938
H         40.37275        58.43649        -1.63269
H         38.31642        57.16013        -1.89800
H         42.78193        14.92694        -0.98479
H         42.90807        58.29072        -1.74297
H         44.91185        16.12429        -1.30783
H         44.98328        57.06670        -1.31528
H         48.50654        18.36752        -2.34232
H         46.45362        17.12142        -1.93314
H         48.61331        55.10751        -0.01370
H         46.53607        56.30218        -0.41203
H         50.21743        19.26585        -1.95453
H         50.18796        54.16451         0.53969
H         52.32482        20.48618        -2.06833
H         52.24607        52.94001         0.94869
H         56.06647        22.59465        -1.47914
H         53.99998        21.47762        -2.23938
H         55.81259        50.70548         2.03541
H         53.69795        51.90677         1.83565
H         56.06031        23.50834         1.42058
H         57.57457        49.79150         1.39599
H         57.12932        24.83635         3.18155
H         58.47525        26.83419         3.86150
H         59.10938        29.19905         3.50327
H         60.28469        30.81785         2.48768
H         60.43775        33.26875         2.60596
H         60.81540        35.27603         1.69572
H         60.86265        37.69948         1.89234
H         60.78056        39.64525         2.22049
H         60.78660        42.08056         2.18042
H         60.83481        43.94384         1.98367
H         60.84061        46.39789         2.02234
H         59.66350        48.53183         1.84122
