         280
 CSIRO Nanostructure Databank - Neutral Graphene Oxide Data Set
C         30.62350        31.77112         2.34721
C         30.50537        32.92441         1.92276
C         30.33924        36.11244         0.91478
C         30.32224        37.30440         0.59844
C         30.19507        40.39854        -0.35771
C         30.10029        41.63266        -0.43232
C         32.76872        28.79520         1.49930
C         31.80707        29.42630         1.95137
C         32.91468        31.56847         1.46618
C         31.75703        30.85927         2.23856
C         32.80671        33.03967         1.14205
C         31.51894        33.84381         1.39463
C         32.58397        35.84689         0.11156
C         31.25309        35.00765         0.46748
C         32.61114        37.33694        -0.12292
C         31.46129        38.24882         0.40677
C         32.59493        40.26141        -0.67223
C         31.30691        39.46503        -0.48014
C         32.54239        41.77870        -0.65254
C         31.25726        42.47262         0.04529
C         32.51465        44.49578        -0.16027
C         31.42588        43.92682        -0.29282
C         35.50915        27.18933         0.93239
C         35.13477        28.49671         0.38799
C         33.87455        29.24065         0.64419
C         35.20568        31.44408         0.41911
C         33.79790        30.78976         0.45857
C         35.18312        32.93303         0.11969
C         33.89342        33.66616         0.29140
C         35.19965        35.92999         0.38419
C         33.90530        35.16811         0.40153
C         35.16343        37.43892         0.19876
C         33.95421        38.06766        -0.49114
C         35.20989        40.36355        -0.41520
C         33.90416        39.60963        -0.28514
C         35.18807        41.82737        -0.83017
C         33.84193        42.53770        -0.69093
C         35.15318        44.69138        -0.00811
C         33.87511        43.95815        -0.14107
C         35.37066        46.12177         0.22689
C         37.93475        27.22488         0.81111
C         36.60892        26.66483         1.08038
C         37.76961        28.47808        -0.06776
C         36.43401        29.19002        -0.07124
C         37.62687        31.50018        -0.57084
C         36.46640        30.69500         0.08159
C         37.75335        32.92538        -0.00823
C         36.48190        33.69053         0.21915
C         37.66970        35.87043         0.10216
C         36.48904        35.18625         0.15748
C         37.61157        37.28955         0.62516
C         36.45139        38.19868         0.20596
C         37.82316        40.33819        -0.65007
C         36.49730        39.50118        -0.66974
C         37.82486        41.85281        -0.73771
C         36.48909        42.60949        -0.80723
C         37.74433        44.77816         0.01884
C         36.48880        44.08584        -0.45078
C         37.62051        45.94623         1.05190
C         36.39207        46.70375         0.59522
C         40.65321        24.63978         1.46909
C         39.58647        25.25568         1.53961
C         40.43624        27.11415         0.22309
C         39.25708        26.59184         1.03520
C         40.36200        28.51729        -0.29753
C         39.04512        29.27192        -0.35624
C         40.32153        31.51992        -0.32780
C         38.99806        30.75599        -0.57040
C         40.22773        32.97670        -0.80099
C         38.95983        33.71521        -0.46346
C         40.23046        35.93637        -0.44802
C         39.02627        35.14307         0.09802
C         40.29226        37.40036        -0.09361
C         39.24857        38.21826        -0.81253
C         40.30628        40.30489        -0.18212
C         39.13172        39.64860        -0.39348
C         40.36675        41.79986        -0.13949
C         39.12219        42.60272        -0.42068
C         40.28654        44.70964         0.64026
C         39.08323        44.07488        -0.01554
C         40.24696        46.09081         1.28433
C         38.88840        46.76268         1.27561
C         40.02205        48.88120         0.75978
C         39.01942        48.20146         0.99316
C         43.14793        24.44925         0.58260
C         41.97342        25.14438         1.09629
C         42.83946        26.98932        -0.67083
C         41.81722        26.50385         0.36350
C         42.82020        28.45593        -1.06656
C         41.70803        29.29137        -0.37032
C         42.78997        31.45202        -1.36229
C         41.53722        30.73087        -0.90258
C         42.80394        32.98352        -1.33582
C         41.52468        33.72547        -1.03272
C         42.80747        35.84614        -0.28088
C         41.51215        35.21996        -0.75037
C         42.83742        37.27354         0.22810
C         41.57773        38.10895         0.17467
C         42.88406        40.32482        -0.04213
C         41.61824        39.52976        -0.39632
C         42.86001        41.79309         0.23394
C         41.50726        42.36088         0.70435
C         42.82106        44.67316         0.82036
C         41.53106        43.88960         0.88308
C         42.77247        46.18919         0.70469
C         41.52673        46.89668         1.13830
C         42.59750        48.95236         0.24341
C         41.42980        48.77696         1.12155
C         44.05674        24.92800        -0.09875
C         45.38130        26.88125        -1.22278
C         44.12001        26.16547        -0.88192
C         45.42596        28.39786        -1.44840
C         44.10040        29.16713        -1.52729
C         45.44793        31.45040        -1.51363
C         44.11866        30.68361        -1.58558
C         45.41967        32.94091        -1.26411
C         44.12100        33.74196        -1.19721
C         45.36377        35.80999        -0.18236
C         44.09835        35.17179        -0.69588
C         45.41562        37.31296         0.02059
C         44.14161        38.03581         0.29568
C         45.43769        40.31213         0.25393
C         44.13193        39.56451         0.31021
C         45.45392        41.82200         0.31045
C         44.11834        42.48420         0.75931
C         45.08890        44.62801        -0.17837
C         44.06728        43.97000         0.42169
C         45.10348        46.11493        -0.40716
C         43.87305        46.89599        -0.08524
C         43.66938        48.34859         0.08654
C         47.54645        27.11379        -0.32879
C         46.70878        26.34467        -0.89735
C         47.82950        28.46500        -0.45902
C         46.72847        29.16178        -1.20922
C         48.05034        31.39190        -0.85401
C         46.77471        30.68003        -1.27435
C         47.93959        32.85228        -0.50341
C         46.63485        33.57354        -0.62426
C         47.88847        35.84846        -0.64025
C         46.63950        35.06699        -0.35188
C         47.87697        37.35031        -0.72994
C         46.50803        38.08344        -0.71178
C         47.89822        40.39045        -0.61100
C         46.61305        39.61628        -0.39799
C         47.96135        41.92070        -0.54958
C         46.65057        42.59919        -0.19305
C         48.67176        45.34979         0.49012
C         46.22023        43.89208        -0.83929
C         47.49323        46.02226         0.19352
C         46.49393        46.60466        -0.30690
C         49.76456        28.71053         1.24461
C         49.01017        29.14421         0.06570
C         50.11709        31.41836         0.81548
C         49.17461        30.66187        -0.11724
C         50.10222        32.94571         0.79258
C         49.19432        33.64181        -0.18025
C         49.89532        35.94332         0.78297
C         49.23748        35.18229        -0.35629
C         50.26177        37.36365         0.34034
C         49.17840        38.10522        -0.45204
C         50.26324        40.38651         0.28092
C         49.19807        39.61625        -0.48560
C         50.53074        41.81305        -0.22347
C         49.28038        42.65990        -0.48917
C         50.88111        44.60018        -0.33936
C         49.43177        44.61454        -0.54081
C         50.50235        29.31282         2.02955
C         51.41915        31.67389         2.89273
C         50.98310        30.69004         1.90487
C         51.47836        32.91203         2.77680
C         50.39229        33.72783         2.13419
C         51.62420        36.10295         2.44157
C         50.54425        35.23430         1.95033
C         51.76164        37.31791         2.24968
C         51.31273        38.13996         1.11214
C         52.51513        40.42857         1.21958
C         51.28458        39.63170         1.11443
C         52.71478        41.60032         0.89614
C         51.92191        42.45339         0.01059
C         51.83240        43.91047         0.02540
O         47.82601        31.06545        -2.22869
O         40.71751        35.84211        -1.81058
O         49.23259        35.89894         2.07204
O         46.61052        44.20352        -1.94491
O         34.53039        35.58802         1.64644
O         46.44970        42.39946         1.23878
O         49.66525        38.84594        -1.61082
O         37.97812        41.04276        -1.92906
O         50.12560        40.25394         1.73356
O         35.59007        38.16401         1.37997
O         42.23545        44.24194         2.09082
O         44.17859        34.88150        -2.11227
O         43.05527        41.34049        -1.11927
O         34.30644        33.20633        -1.01864
O         43.99343        29.87069        -2.78393
O         39.27336        33.37024        -1.82895
O         38.73643        27.55880         1.98136
O         38.28142        37.57449         1.60544
O         46.03452        35.22985         0.97167
O         38.60601        37.75015        -1.73716
O         34.54029        40.21447         0.86793
O         49.87913        29.70765        -0.95366
O         50.54939        33.24285        -0.55459
O         32.61314        33.92372         2.30536
O         42.59701        46.71786         2.08048
O         40.64266        37.86193         1.24214
O         40.15034        42.39391        -1.43914
O         32.95948        31.28610         2.89168
O         44.86079        39.92529         1.53132
O         37.22993        44.98227        -1.32159
O         37.31894        33.18553         1.33262
O         41.99351        33.51610        -2.40288
O         46.98312        40.16547        -1.71204
O         46.35887        28.65336        -2.53167
O         39.03499        29.87087        -1.70503
O         42.31008        26.39138         1.73537
O         42.33810        27.43584        -1.95330
O         42.76246        36.15353         1.14638
O         45.62025        32.40562        -2.59586
O         32.32550        36.40972        -1.20631
O         44.14862        46.48536        -1.43868
O         41.77474        30.95039        -2.28798
O         45.04506        37.59963         1.37172
O         48.65743        42.38194        -1.74806
O         39.52899        46.34903         2.51664
O         47.00786        32.91930         0.64292
O         35.82448        42.24329        -2.05681
O         32.99232        42.40703        -1.86990
O         44.60281        26.16913        -2.22014
O         36.11938        31.02638         1.46270
O         51.57736        41.86720        -1.24673
O         47.92139        36.51065        -1.92878
O         34.09318        28.56654        -0.61536
O         40.04430        44.85656        -0.79386
O         51.50515        30.96049         0.61527
O         40.13819        27.35878        -1.16607
O         34.57186        44.00786         1.13571
O         31.95160        39.52618        -1.76894
O         36.92611        28.49532        -1.24844
O         51.60784        37.53636        -0.16638
O         36.37699        39.02497        -2.00934
H         36.77572        39.68590        -2.62068
O         39.37118        34.94339         1.49372
H         39.24258        35.80317         1.96533
O         41.65219        49.17243         2.40941
H         42.50382        48.80039         2.72428
O         41.28754        41.79985         2.01167
H         41.97802        42.17215         2.61185
O         45.96780        37.99751        -2.04387
H         46.59636        38.42036        -2.67172
O         44.05501        42.36496         2.18928
H         44.95454        42.53192         2.54997
O         33.14006        30.99894        -0.79204
H         33.42516        30.29931        -1.42263
O         37.22963        31.67061        -1.93553
H         37.64465        30.95490        -2.47302
O         30.78707        34.43372        -0.72740
H         30.78090        35.12679        -1.42567
O         49.14764        45.28327         1.75976
H         48.60818        45.83935         2.35687
O         31.86688        38.77028         1.66817
H         31.84710        38.06449         2.34781
O         34.14746        37.85008        -1.88730
H         33.36421        38.19586        -2.37318
O         50.09641        35.44933        -1.46693
H         49.68585        35.12852        -2.29634
O         42.19091        29.42137         0.98721
H         41.61016        30.05023         1.47965
O         31.40124        42.31071         1.42466
H         30.65792        42.73865         1.89610
O         49.00262        44.92253        -1.79556
H         49.49597        44.41846        -2.47381
O         41.69982        39.28257        -1.81790
H         41.82690        40.14519        -2.27558
O         40.53382        31.58195         1.10847
H         39.86995        32.17624         1.52655
O         37.30010        45.27678         2.25878
H         37.40391        45.89068         3.01669
O         49.20749        33.48921         2.88840
H         48.74836        34.34042         3.06972
