         232
 CSIRO Nanostructure Databank - Neutral Graphene Oxide Data Set
C        -11.13935         0.66492         0.26531
C         -9.96096         1.47660         0.38962
C         -8.68834         0.75937         0.42813
C         -7.53431         1.44634         0.20344
C         -6.23647         0.74480         0.06425
C         -5.17329         1.44657        -0.72033
C         -3.89778         0.70088        -0.98646
C         -2.60080         1.46339        -0.90214
C         -1.37803         0.67073        -0.65082
C         -0.18712         1.36302        -0.14619
C          1.13338         0.65555        -0.32724
C          2.38420         1.46769        -0.40810
C          3.65366         0.73458        -0.21356
C          4.92907         1.54862        -0.12945
C          6.13116         0.70450         0.23841
C          7.37079         1.40950         0.46387
C          8.57490         0.74986         0.59494
C          9.80500         1.47073         0.93223
C         10.96208         0.67735         1.31120
C         -9.95057         2.86697         0.34288
C         -8.75826         3.61590         0.88174
C         -7.37545         2.91831         0.54798
C         -6.44910         3.66929        -0.40039
C         -5.18035         2.94545        -0.80153
C         -3.87230         3.66469        -0.78954
C         -2.63794         2.93933        -0.68461
C         -1.44473         3.60935        -0.40469
C         -0.33166         2.82731         0.27439
C          1.02445         3.55900         0.35622
C          2.32397         2.90771        -0.02542
C          3.57193         3.63035         0.33672
C          4.80638         2.84217         0.71537
C          6.08395         3.65410         0.58258
C          7.36193         2.88538         0.84073
C          8.60726         3.52288         0.23385
C          9.83202         2.83541         0.80757
C         -8.69255         5.12975         0.70925
C         -7.59102         5.83418         0.35765
C         -6.44461         5.14739        -0.31149
C         -5.10013         5.80262        -0.26703
C         -3.85888         5.06033        -0.60241
C         -2.62795         5.77926        -0.58327
C         -1.39816         5.04176        -0.43259
C         -0.17716         5.72891        -0.22682
C          1.04563         5.05139         0.20714
C          2.34482         5.75717         0.12778
C          3.57310         5.00660         0.32186
C          4.81616         5.75176         0.54606
C          6.10286         5.02630         0.53004
C          7.39900         5.73021         0.30022
C          8.56903         5.02532         0.26861
C         -7.50816         7.34830         0.56432
C         -6.37670         8.02507        -0.26714
C         -5.06076         7.28655        -0.10315
C         -3.78253         7.98022        -0.35622
C         -2.62246         7.21931        -0.55401
C         -1.37337         7.94563        -0.77820
C         -0.04573         7.12398        -0.60433
C          1.15232         7.86727        -0.22346
C          2.31646         7.14738         0.15007
C          3.47463         7.93375         0.70185
C          4.69493         7.07944         0.84531
C          6.57056         8.09088         0.25530
C          7.44190         7.13251        -0.15776
C         -6.19280         9.49236         0.05720
C         -4.98910        10.10586         0.00369
C         -3.73772         9.40322        -0.26836
C         -2.50856        10.08038        -0.31740
C         -1.28884         9.38959        -0.53138
C         -0.01756        10.00999        -0.50899
C          1.18868         9.28062        -0.36077
C          2.50104         9.90742        -0.40207
C          3.66365         9.24663        -0.06468
C          4.93722         9.84841        -0.43017
C          6.21164         9.35064        -0.37437
C        -11.11110        -0.72364         0.32332
C         -9.92418        -1.47244         0.54465
C         -8.65816        -0.70177         0.83766
C         -7.49442        -1.48086         0.20287
C         -6.18522        -0.73581         0.19980
C         -5.01991        -1.50230        -0.27322
C         -3.89722        -0.79553        -0.87828
C         -2.56472        -1.51638        -0.94117
C         -1.32154        -0.69637        -0.86225
C         -0.06108        -1.41029        -0.93605
C          1.17086        -0.72327        -0.86430
C          2.47322        -1.34502        -0.80684
C          3.62715        -0.62713        -0.25604
C          4.77391        -1.43494         0.30831
C          6.08393        -0.67129         0.24097
C          7.34106        -1.43548         0.24366
C          8.65603        -0.70102         0.38315
C          9.82872        -1.46833         0.86933
C         10.97025        -0.68919         1.29149
C         -9.86657        -2.87994         0.51488
C         -8.66242        -3.62478         0.61652
C         -7.36628        -2.87355         0.82860
C         -6.13163        -3.60492         0.35345
C         -4.95984        -2.88586        -0.01167
C         -3.67559        -3.56087        -0.00328
C         -2.52857        -2.87551        -0.36022
C         -1.25054        -3.52451        -0.32293
C         -0.13033        -2.85475        -0.90888
C          0.96052        -3.66015        -1.28957
C          2.74799        -2.61566        -1.30910
C          3.84676        -3.45810        -0.88469
C          4.88374        -2.86354        -0.21905
C          6.07607        -3.62856         0.20424
C          7.33496        -2.89591         0.54193
C          8.62843        -3.63410         0.58988
C          9.81216        -2.85020         0.87246
C         -8.58606        -5.02977         0.53556
C         -7.36156        -5.73427         0.55819
C         -6.08494        -5.01834         0.51680
C         -4.86395        -5.70306         0.57304
C         -3.60618        -4.92928         0.57976
C         -2.24449        -5.61837         0.74614
C         -1.09252        -4.82202         0.20490
C          0.23434        -5.30072         0.24361
C          1.23548        -4.87599        -0.63683
C          2.45599        -5.67865        -0.99408
C          3.80125        -4.93046        -1.32137
C          5.03918        -5.73339        -0.82241
C          6.23255        -5.04322        -0.22870
C          7.42138        -5.80066         0.27355
C          8.61580        -5.01470         0.54977
C         -7.30681        -7.15449         0.44303
C         -6.11162        -7.85501         0.53002
C         -4.87907        -7.14245         1.05231
C         -3.54380        -7.90073         0.83959
C         -2.21130        -7.16682         0.80048
C         -1.04097        -7.96797         0.29920
C          0.26105        -7.46562         0.37128
C          1.34789        -8.00470        -0.31281
C          2.48999        -7.17234        -0.79858
C          3.78747        -7.88268        -0.72819
C          4.96010        -7.19299        -0.59380
C          6.12066        -7.94144         0.02903
C          7.41005        -7.16383         0.17529
C         -6.05349        -9.25016         0.23533
C         -4.86311        -9.91858         0.09749
C         -3.58582        -9.27653         0.25727
C         -2.44514        -9.92722        -0.17060
C         -1.14348        -9.31036        -0.16251
C          0.03287       -10.01707        -0.54555
C          1.28839        -9.37826        -0.65828
C          2.56493       -10.02929        -0.92742
C          3.75800        -9.34319        -0.80316
C          5.06797        -9.98783        -0.89758
C          6.20387        -9.32695        -0.57454
O          7.50541         2.92013         2.29185
H          6.65800         2.57807         2.66224
O          1.06045         4.35735         1.55736
O          4.66842         2.42723         2.10960
H          4.30346         3.18211         2.61864
O         -8.50721        -0.64770         2.27049
H         -7.62260        -0.25552         2.45776
O          4.43166        -1.57767         1.72378
H          5.11132        -2.17523         2.12394
O          5.77873         7.77828         1.38674
O         -7.30478         7.62545         1.95166
H         -6.49615         7.13597         2.22761
O         -8.95027         3.41884         2.30452
H         -8.03203         3.17060         2.63797
O         -0.84716         2.75752         1.63052
H         -0.26290         2.14829         2.13544
O         -2.89092        -5.01103         1.89316
O         -0.59601         7.47053        -1.91030
O         -6.71885         7.92044        -1.67282
H         -7.51328         8.46753        -1.84306
O          2.14652        -6.58610        -2.12272
O         -3.40939        -1.42653        -2.12304
O          5.18660         2.03433        -1.47215
H          5.33085         1.26730        -2.06424
O         -5.09090        -7.05095         2.49070
H         -4.20374        -6.87150         2.88641
O          3.08196         8.32429         2.05904
H          3.89776         8.63997         2.50516
O          5.68217        -8.15323         1.42935
H          6.37214        -8.68843         1.87594
O          3.90298        -4.87817        -2.75001
H          3.42272        -5.65925        -3.11182
O          0.51218        -6.32472         1.13644
O         -7.14097        -2.73220         2.25599
H         -7.07827        -3.63053         2.64330
O         -4.97712         6.43306         1.08278
O          8.58875         3.19113        -1.19148
H          9.38865         3.57801        -1.60403
O         -5.57168         2.10661        -1.95422
O         -7.84058        -1.65190        -1.19351
H         -7.07545        -2.04809        -1.66219
O          1.85298        -3.16593        -2.24694
O          6.16634        -5.28682        -1.66832
O          6.43586        -3.35661         1.61413
O         -6.91672         4.46918        -1.53045
O         -2.70809        -7.76215         2.03887
O          2.32978         2.49339        -1.45836
O          8.17740        -1.15610        -0.93331
O         -5.81667         0.12736         1.33957
O         -6.64635         2.86707         1.74924
O         -3.23149         1.13603        -2.19384
O          0.47153         0.66115         0.98528
H         11.87626        -1.23037         1.60386
H         11.87016         1.21547         1.62260
H         10.76128         3.39875         0.98714
H          9.49775         5.55541        -0.00159
H          8.14743         7.36674        -0.96998
H          7.00451         9.91409        -0.89084
H          4.82663        10.81345        -0.95438
H          2.56418        10.91892        -0.83566
H          0.02894        11.10961        -0.48755
H         -2.48665        11.16881        -0.15668
H         -4.92423        11.18881         0.19276
H         -7.09447        10.08482         0.27795
H         -8.48519         7.81920         0.27477
H         -9.54146         5.67955         1.14990
H        -10.88531         3.41244         0.13023
H        -12.10912         1.16863         0.13185
H        -12.05642        -1.27272         0.18706
H        -10.80358        -3.43768         0.34829
H         -9.51842        -5.61156         0.45623
H         -8.23448        -7.70286         0.21467
H         -6.99706        -9.77781         0.02995
H         -4.86723       -10.97307        -0.21582
H         -2.53830       -10.94780        -0.57236
H         -0.05393       -11.08652        -0.78791
H          2.57768       -11.11688        -1.09583
H          5.11036       -11.03113        -1.24640
H          7.18106        -9.82984        -0.63918
H          8.31793        -7.73477         0.43005
H          9.56066        -5.56174         0.69418
H         10.72925        -3.39276         1.15116
