         429
 CSIRO Nanostructure Databank - Neutral Graphene Oxide Data Set
C          1.35940         2.09470        -1.58663
C          1.29060         3.47054        -1.28811
C          2.57635         1.45114        -1.68583
C          2.44886         4.22852        -1.07890
C          1.19767         6.37138        -0.67150
C          1.16571         7.77057        -0.46523
C          2.40294         5.66349        -0.81295
C          2.31462         8.53916        -0.44648
C          1.15027        10.71282        -0.78612
C          1.19843        12.08452        -1.03172
C          2.32787         9.99506        -0.49224
C          2.40899        12.77842        -1.05394
C          1.23040        15.05095        -1.21790
C          1.30881        16.40088        -1.30328
C          2.41682        14.21015        -1.45279
C          2.57608        17.09578        -1.38472
C          2.59188        18.51832        -1.28199
C          3.79089         2.17018        -1.47465
C          3.72440         3.57654        -1.16796
C          5.03458         1.52813        -1.55825
C          4.92107         4.29217        -0.92515
C          3.63153         6.37148        -0.65621
C          3.64805         7.87994        -0.66380
C          4.86225         5.69702        -0.64382
C          4.72890         8.48119         0.22703
C          3.55464        10.70383        -0.38576
C          3.63557        12.09166        -0.73891
C          4.73639        10.04219         0.20978
C          4.89604        12.74222        -0.82668
C          3.75261        14.91473        -1.57725
C          3.78507        16.37843        -1.39332
C          5.00206        14.11921        -1.33024
C          5.02422        17.05937        -1.17910
C          3.77404        19.19218        -1.10422
C          5.00467        18.47817        -1.00073
C          6.25543         2.22039        -1.32514
C          6.19508         3.63234        -0.96573
C          7.47375         1.53894        -1.37742
C          7.34810         4.31628        -0.55763
C          6.06464         6.38944        -0.23886
C          5.97699         7.69427         0.31226
C          7.29869         5.69011        -0.13693
C          7.09220         8.18592         0.99887
C          6.00339        10.78851         0.24651
C          6.18695        11.95364        -0.70054
C          7.09518        10.34243         0.97079
C          7.38625        12.79552        -0.27094
C          6.30195        14.87712        -1.15657
C          6.26684        16.36557        -1.07657
C          7.43328        14.16903        -0.50207
C          7.45790        17.06451        -0.79969
C          6.19292        19.14841        -0.63884
C          7.40863        18.47940        -0.51754
C          8.73537         2.22290        -1.16577
C          8.66068         3.65771        -0.65834
C         10.01085         1.50481        -0.99500
C          9.75479         4.15454         0.23686
C          8.47607         6.37982         0.29902
C          8.39299         7.68283         0.80945
C          9.70586         5.60701         0.59349
C          9.58855         8.45192         1.39425
C          8.43718        10.79716         0.78918
C          8.53930        12.15054         0.28828
C          9.62246        10.00669         1.01075
C          9.73473        12.86016         0.51029
C          8.62576        14.90288        -0.24832
C          8.67882        16.29707        -0.57561
C          9.80214        14.23880         0.20996
C          9.93843        16.89170        -0.59306
C          8.52493        19.22665         0.07297
C          9.82222        19.00769        -0.24004
C         11.13717         2.13045        -0.51038
C         11.05645         3.36068         0.37842
C         12.41982         1.52896        -0.63545
C         12.29738         4.24250         0.34611
C         10.96612         6.34679         0.83740
C         10.91363         7.74350         1.04436
C         12.20796         5.66481         0.68125
C         12.12370         8.45920         1.16339
C         10.83637        10.67567         1.04671
C         10.85446        12.17950         1.27541
C         12.11372         9.94067         1.02792
C         12.19135        12.88612         1.12208
C         11.02845        14.97004         0.40667
C         11.08359        16.34219         0.05752
C         12.21318        14.29830         0.85737
C         12.26029        17.13662         0.30329
C         11.06442        19.50980         0.43226
C         12.28011        18.59127         0.28253
C         13.58122         2.20962        -0.24951
C         13.50574         3.59257         0.20521
C         14.85060         1.62516        -0.46215
C         14.79790         4.30012         0.35588
C         13.40020         6.39768         0.90815
C         13.35880         7.77675         1.17742
C         14.71598         5.74011         0.75336
C         14.58779         8.45225         1.75682
C         13.39496        10.69956         1.15758
C         13.41112        12.18755         1.26724
C         14.62184         9.97119         1.61706
C         14.64978        12.86140         1.26628
C         13.42198        15.03674         0.90425
C         13.45518        16.43134         0.63425
C         14.63628        14.35958         1.49835
C         14.72183        17.14292         0.61984
C         13.48830        19.25146         0.33551
C         14.74227        18.56422         0.40779
C         16.07806         2.18261        -0.03814
C         16.05843         3.51721         0.59123
C         17.25385         1.48615        -0.42347
C         17.13753         4.16739         1.15912
C         15.91902         6.41007         1.26945
C         15.91439         7.78395         1.42880
C         17.10691         5.59021         1.67143
C         17.15473         8.49984         1.42087
C         15.91491        10.69698         1.43563
C         15.89463        12.14793         1.10715
C         17.17182         9.93291         1.25418
C         17.07900        12.77744         0.77860
C         15.95165        15.04108         1.13986
C         15.93531        16.45851         0.72153
C         17.17653        14.24536         0.82917
C         17.17866        17.12387         0.50910
C         15.95569        19.25514         0.36770
C         17.19367        18.56100         0.40258
C         18.50660         1.69438         0.20832
C         18.40679         3.51813         1.41880
C         19.79568         1.60410        -0.27582
C         19.63115         4.14995         1.43624
C         18.42759         6.31592         1.47905
C         18.39388         7.75865         1.34465
C         19.62337         5.60185         1.48027
C         19.57125         8.43940         1.02905
C         18.30062        10.59330         0.80418
C         18.27183        12.00916         0.26065
C         19.52922         9.83209         0.57669
C         19.59399        12.77129         0.41078
C         18.31795        14.91332         0.09004
C         18.38980        16.39527         0.38463
C         19.61622        14.17424         0.32246
C         19.62199        17.06709         0.30742
C         18.42978        19.22853         0.31253
C         19.64586        18.51310         0.30731
C         20.94281         2.10898         0.46348
C         20.90050         3.28789         1.46819
C         22.15573         1.53080         0.23065
C         22.17356         4.11129         1.28956
C         20.89276         6.33253         1.64061
C         20.86306         7.81202         1.28974
C         22.21127         5.56120         1.73735
C         22.09813         8.52657         0.92411
C         20.82695        10.59378         0.41240
C         20.82196        12.07031         0.46115
C         22.09627         9.87376         0.64559
C         22.06432        12.75032         0.41393
C         20.84672        14.88666         0.30515
C         20.85854        16.33460         0.25023
C         22.07784        14.17310         0.32374
C         22.08485        17.03188         0.20575
C         20.88831        19.18610         0.24511
C         22.10216        18.47927         0.19540
C         23.40335         1.98426         0.93639
C         23.37251         3.48825         1.10313
C         24.66629         1.49324         0.28877
C         24.65869         4.19703         1.16636
C         23.35442         6.26532         1.00848
C         23.32682         7.73977         0.73900
C         24.66360         5.55491         1.11280
C         24.58017         8.49283         0.58616
C         23.32955        10.61015         0.49416
C         23.31106        12.00769         0.39031
C         24.56834         9.85803         0.47915
C         24.55545        12.73469         0.18598
C         23.32691        14.88698         0.19878
C         23.32722        16.31980         0.15949
C         24.54429        14.18190         0.09340
C         24.55385        17.03104         0.08010
C         23.34176        19.16655         0.13499
C         24.56214        18.47492         0.07219
C         25.88512         2.09822         0.52541
C         25.90488         3.34221         1.40500
C         27.09742         1.45729         0.16846
C         27.25114         4.15412         1.36302
C         25.93049         6.37264         1.16561
C         25.82458         7.69557         0.41417
C         27.11782         5.53511         0.72227
C         27.08823         8.41262         0.07575
C         25.86204        10.62473         0.52359
C         25.74516        12.04492         0.05274
C         27.08601         9.89038         0.03514
C         26.97413        12.75229        -0.33451
C         25.78218        14.89718        -0.02358
C         25.78787        16.32659        -0.00272
C         27.00906        14.20999        -0.18972
C         27.02592        17.02522        -0.09634
C         25.80562        19.16028        -0.00365
C         27.02405        18.47141        -0.08968
C         28.37468         2.05918         0.34826
C         28.42999         3.43582         0.71494
C         29.57882         1.36928         0.05563
C         29.64393         4.14327         0.53584
C         28.37872         6.26204         0.36958
C         28.39532         7.73851         0.26817
C         29.67110         5.57937         0.54327
C         29.55985         8.42926         0.29324
C         28.26484        10.55371        -0.08617
C         28.27984        11.99554        -0.40073
C         29.58356         9.94143         0.33157
C         29.55223        12.74450        -0.32116
C         28.24737        14.88772        -0.25616
C         28.24983        16.31607        -0.19937
C         29.49927        14.16659        -0.32877
C         29.49657        17.02472        -0.31163
C         28.26640        19.16180        -0.17067
C         29.48419        18.48295        -0.28303
C         30.83441         2.02150         0.11010
C         30.86251         3.44491         0.31056
C         32.05817         1.34736        -0.11195
C         32.08967         4.16852         0.27268
C         30.86165         6.29205         0.51056
C         30.86002         7.79189         0.71342
C         32.09701         5.59381         0.39304
C         32.09649         8.48727         0.16113
C         30.74959        10.53423        -0.47959
C         30.77091        12.04624        -0.34325
C         32.06838         9.85727        -0.16600
C         31.99967        12.75988        -0.33800
C         30.72366        14.88905        -0.37807
C         30.69832        16.32540        -0.42716
C         31.95574        14.17319        -0.34367
C         31.94673        17.07060        -0.83268
C         30.71898        19.19100        -0.30345
C         31.94571        18.53365        -0.45090
C         33.29173         2.04348        -0.11705
C         33.31491         3.46863         0.09074
C         34.51130         1.37730        -0.35940
C         34.54689         4.18142         0.11693
C         33.33222         6.31336         0.31953
C         33.32317         7.77553         0.17288
C         34.53606         5.60236         0.26956
C         34.51933         8.45747        -0.14338
C         33.27490        10.57107        -0.37651
C         33.27499        12.03673        -0.43154
C         34.49563         9.84412        -0.37760
C         34.47248        12.73364        -0.50265
C         33.20061        14.94082        -0.17542
C         33.22440        16.37693        -0.44740
C         34.52889        14.18071        -0.22507
C         34.42058        17.06460        -0.47624
C         33.17368        19.21063        -0.39259
C         34.41699        18.53136        -0.48704
C         35.73883         2.07860        -0.38691
C         35.77268         3.48257        -0.11192
C         36.94029         1.40822        -0.74230
C         37.03627         4.18527        -0.11381
C         35.82480         6.37034         0.43811
C         35.80147         7.67555        -0.37812
C         37.06614         5.57177         0.13701
C         37.06053         8.48673        -0.11596
C         35.76564        10.54129        -0.67003
C         35.75536        12.05123        -0.76239
C         37.01935         9.86468        -0.26451
C         37.02792        12.79381        -0.53857
C         35.74297        14.96028        -0.53006
C         35.67743        16.34834        -0.54776
C         37.01204        14.26045        -0.60819
C         36.89416        17.13670        -0.81228
C         35.62315        19.23952        -0.43960
C         36.88482        18.58887        -0.53355
C         38.15903         2.09397        -0.80105
C         38.22680         3.46452        -0.44133
C         39.34216         1.42877        -1.32505
C         39.61254         4.05981        -0.27838
C         38.33203         6.32046         0.14792
C         38.30800         7.79602        -0.00580
C         39.62585         5.58232        -0.13168
C         39.53117         8.47648        -0.12595
C         38.18988        10.68008         0.01896
C         38.19062        12.12632        -0.26745
C         39.56988         9.92925         0.06774
C         39.45883        12.88848         0.08109
C         38.20293        14.95530        -0.60546
C         38.22877        16.40840        -0.80023
C         39.51274        14.21692        -0.67687
C         39.44411        17.16856        -0.45136
C         38.09111        19.26207        -0.41259
C         39.35894        18.58366        -0.34334
C         40.46350         2.13326        -1.64402
C         40.57436         3.53295        -1.31938
C         41.57262         4.32710        -1.82605
C         40.73105         6.36526        -0.73808
C         40.73919         7.80602        -0.53234
C         41.65192         5.72453        -1.54014
C         41.87628         8.57280        -0.81382
C         40.77743        10.69119        -0.27298
C         40.76169        12.13217        -0.16984
C         41.88711         9.97639        -0.71706
C         41.91326        12.88753        -0.17807
C         40.72984        15.03309        -0.26550
C         40.66711        16.49314        -0.20777
C         41.88863        14.32016        -0.08642
C         41.80955        17.26695         0.09201
C         40.53357        19.32009        -0.05907
C         41.74068        18.66115         0.14744
O         27.53177        12.28754        -1.63496
O          4.34633         9.22990         1.37984
O          3.03627        14.45591        -2.76912
O          9.29948         4.54912         1.56761
O         39.28732         5.94644         1.24288
O          6.91427         9.27447         1.85699
O         37.58528        16.81362        -2.06945
O          9.01811         3.41576        -2.04860
O         23.06926         6.70095        -0.34881
O         15.27620        10.55306         2.78152
O          9.47277         8.46596         2.77156
O          5.97288        14.26961        -2.45750
O         16.97497        14.79218         2.18292
O         29.71174        10.29198         1.70040
O         38.87987        10.37814         1.27704
O         18.38464         2.13404         1.54692
O         26.26546         7.75526        -0.97311
O         14.97789         5.34445        -0.67690
O         35.78901        11.21127        -1.98176
O         27.51967         5.58438        -0.65423
O         20.86538         7.32740         2.72067
O         12.95908        10.28518        -0.18124
O         10.09734        18.10083        -1.28764
O         20.12321        10.06185        -0.78514
O         33.91976        14.56348         1.05425
O         30.46619        10.23134        -1.87529
H         31.14196        10.67098        -2.43230
O         17.99340        14.79795        -1.32769
H         18.79389        15.02148        -1.84646
O         31.93071        17.04754        -2.30987
H         31.12546        17.52733        -2.59963
O         35.81932         7.29010        -1.77788
H         35.70530         8.10042        -2.31857
O          4.08492         8.25378        -2.02161
H          3.45283         7.85909        -2.65897
O         14.44672         8.18103         3.18905
H         14.85645         8.94291         3.66421
O         18.06399        11.85533        -1.17961
H         18.78579        11.26022        -1.50070
O         35.91106         6.78871         1.83041
H         35.99697         5.98968         2.39086
O         26.15922         6.74377         2.55184
H         26.60833         5.98076         2.99550
O         27.65215         4.42150         2.73306
H         27.25894         3.70068         3.28495
O         22.55084         5.48711         3.14712
H         22.21367         6.31527         3.56552
O          6.49678        11.43269        -2.03423
H          6.47536        12.20814        -2.64319
O         10.81450        19.71954         1.83200
H         10.76518        18.84829         2.27625
O         21.00481         2.69803         2.80309
H         21.13508         3.43879         3.43548
O         11.06182         2.77718         1.71523
H         10.56227         3.40346         2.29415
O         39.69192        13.87743        -2.08441
H         39.53865        14.68933        -2.61276
O         14.47783        14.51799         2.94697
H         15.37459        14.38816         3.33451
O         40.09965         3.51389         0.99044
H         39.80812         4.14766         1.68785
O         25.77550         2.82903         2.76100
H         24.95125         2.26795         2.79010
O         39.38842        13.16792         1.49919
H         39.28937        12.29826         1.95239
O         26.12377        10.77980         1.98115
H         27.09814        10.80793         2.12097
O         16.95594         5.44690         3.13630
H         16.83331         6.34442         3.51442
O         10.50823        12.37085         2.69887
H          9.90644        11.64119         2.96519
O         23.40472         1.43380         2.30859
H         22.53899         1.71869         2.71180
O         30.93047         8.00950         2.15495
H         30.55367         8.93453         2.29707
H          0.42707         1.53514        -1.74626
H          0.30066         3.94289        -1.22788
H          2.62346         0.37848        -1.92217
H          0.23837         5.83926        -0.71932
H          0.18237         8.24691        -0.34167
H          0.18754        10.19019        -0.85863
H          0.26503        12.60636        -1.28197
H          0.26599        14.57408        -0.99421
H          0.40179        17.01089        -1.17849
H          1.63787        19.06371        -1.31515
H          5.07142         0.45723        -1.80809
H          3.78449        20.28645        -0.99946
H          7.47803         0.44472        -1.49021
H          6.14704        20.22499        -0.41835
H         10.10654         0.51027        -1.45971
H          8.27778        19.99896         0.81610
H         12.50738         0.54729        -1.12577
H         11.33649        20.51296         0.00800
H         14.87978         0.63178        -0.93597
H         13.50134        20.35208         0.33011
H         17.16958         0.74642        -1.23460
H         15.95425        20.35141         0.27729
H         19.98072         1.14066        -1.25658
H         18.44948        20.32561         0.23422
H         22.22226         0.66802        -0.45065
H         20.90326        20.28610         0.23740
H         24.63265         0.54747        -0.27480
H         23.34145        20.26675         0.12953
H         27.04640         0.45736        -0.28899
H         25.80735        20.26080        -0.00271
H         29.53470         0.30174        -0.20399
H         28.26563        20.26208        -0.14394
H         32.05437         0.26240        -0.29371
H         30.70567        20.28201        -0.15589
H         34.50818         0.29467        -0.55456
H         33.17720        20.30200        -0.24593
H         36.90026         0.34220        -1.01001
H         35.59878        20.33455        -0.32978
H         39.26492         0.36084        -1.57583
H         38.08264        20.35184        -0.25723
H         41.29436         1.64812        -2.17807
H         42.31078         3.89317        -2.51665
H         42.45324         6.30010        -2.02356
H         42.79842         8.07214        -1.13890
H         42.80672        10.51097        -0.99233
H         42.89725        12.39698        -0.21167
H         42.84376        14.83006         0.10475
H         42.77482        16.77708         0.27649
H         40.47916        20.41553         0.01423
H         42.64802        19.23906         0.37180
