         620
 CSIRO Nanostructure Databank - Neutral Graphene Oxide Data Set
C         22.87648        27.37119         0.97125
C         22.86285        28.75996         1.05028
C         22.94886        31.69514         0.70058
C         22.97034        33.12330         0.67245
C         22.89811        36.04211         0.39249
C         22.94698        37.36858         0.15136
C         22.93959        40.30857        -0.06599
C         22.94027        41.68285        -0.42530
C         23.01233        44.55773        -1.26067
C         23.05231        45.88232        -1.63800
C         25.30346        24.52193         0.78563
C         24.10952        25.21402         0.85200
C         25.33815        27.32324         0.88745
C         24.09561        26.63271         0.89608
C         25.31474        28.79715         0.80220
C         24.04822        29.51734         1.00880
C         25.31248        31.68394         1.43019
C         24.05979        30.95701         1.05528
C         25.31826        33.21230         1.56301
C         24.06464        33.86225         1.01280
C         25.33275        36.03830         0.92499
C         23.99618        35.36387         1.17108
C         25.30671        37.44967         0.81078
C         24.11412        38.16227         0.48768
C         25.29209        40.39234         0.60675
C         24.07331        39.59652         0.34755
C         25.28787        41.84616         0.16496
C         24.08884        42.46497        -0.42379
C         25.43163        44.54475        -0.95203
C         24.19249        43.85053        -0.88673
C         25.48995        45.89891        -1.37826
C         24.28310        46.58998        -1.68571
C         25.52079        48.67193        -1.97456
C         24.33231        47.97725        -2.00642
C         27.86524        23.08105         0.67041
C         27.82108        24.48340         0.74486
C         26.55290        25.19691         0.81240
C         27.84001        27.32731         1.06332
C         26.55039        26.61247         0.88705
C         27.86947        28.82381         1.08155
C         26.59687        29.55411         0.80326
C         27.87193        31.72998         0.97263
C         26.61770        30.98407         1.23635
C         27.81722        33.14696         0.88382
C         26.59166        33.88052         1.03405
C         27.81353        36.01100         0.67418
C         26.55652        35.29281         0.89216
C         27.83191        37.39403         0.67761
C         26.59474        38.16564         0.91763
C         27.77060        40.23618         0.03569
C         26.60925        39.66428         0.76983
C         27.59377        41.41194        -0.62234
C         26.61084        42.43535        -0.22093
C         27.96228        44.44026        -1.39428
C         26.72753        43.85293        -0.67375
C         27.97705        45.94334        -1.20432
C         26.74437        46.62559        -1.41915
C         28.00633        48.74741        -1.59987
C         26.75182        48.02366        -1.66390
C         28.10824        50.10579        -1.98732
C         30.30055        23.05635         0.48353
C         29.06716        22.38677         0.54281
C         30.28826        24.49126         0.55685
C         29.06321        25.20346         0.68898
C         30.28533        27.37430         0.58613
C         29.10048        26.63003         0.76609
C         30.30098        28.82870         0.59188
C         29.11738        29.55906         0.79339
C         30.31250        31.68527         0.51663
C         29.07724        30.99231         0.74477
C         30.28030        33.11916         0.42810
C         29.05451        33.84887         0.59382
C         30.27723        35.96375         0.27623
C         29.04983        35.26056         0.51272
C         30.32093        37.37267         0.27997
C         29.11989        38.17536         0.68250
C         30.35716        40.20788        -0.37774
C         29.01946        39.46233        -0.14435
C         30.47464        41.68113        -0.52989
C         29.43271        42.43776        -1.10261
C         30.40130        44.56242        -0.50677
C         29.28621        43.81493        -0.98208
C         30.34882        45.97618        -0.49330
C         29.15874        46.65673        -0.93772
C         30.38106        48.82730        -0.92782
C         29.17436        48.09248        -1.11041
C         30.45094        50.16105        -1.33478
C         29.31491        50.77675        -1.90427
C         32.93656        20.26325         0.54252
C         31.67742        20.94503         0.52061
C         32.79934        23.11836         0.41871
C         31.55889        22.31865         0.42263
C         32.67656        24.55403         0.04827
C         31.48935        25.25625         0.38765
C         32.73734        27.38563         0.05793
C         31.50719        26.67342         0.32623
C         32.78145        28.79944         0.14597
C         31.54295        29.53217         0.39135
C         32.84422        31.66768         0.43980
C         31.52631        30.93556         0.39354
C         32.71200        33.04322        -0.17855
C         31.48040        33.82971         0.10531
C         32.71839        35.98341        -0.24727
C         31.47789        35.21996         0.02012
C         32.80012        37.39799         0.19337
C         31.54545        38.10717         0.23703
C         32.70889        40.27761         0.53644
C         31.53410        39.51183         0.15244
C         32.81077        41.72110         0.27591
C         31.62026        42.40639        -0.12733
C         32.82930        44.52720         0.03232
C         31.61898        43.84231        -0.18719
C         32.81926        45.98812         0.20249
C         31.49221        46.73651         0.02166
C         32.87961        48.83897        -0.41754
C         31.50696        48.25950        -0.08653
C         32.93201        50.18352        -0.74376
C         31.75606        50.92159        -1.34153
C         32.83244        52.99984        -0.55795
C         31.68593        52.32809        -0.80061
C         35.54157        18.84472         0.40363
C         35.46391        20.25812         0.53462
C         34.15007        20.91990         0.52643
C         35.42535        23.05963         0.25572
C         34.12648        22.39665         0.53715
C         35.55270        24.13753        -0.53739
C         33.68499        25.26862        -0.57078
C         35.19139        27.30077        -0.51379
C         33.90757        26.66906        -0.38072
C         35.24341        28.71451        -0.34820
C         34.02864        29.46242        -0.09228
C         35.25255        31.57702        -0.32130
C         34.05824        30.89437        -0.06775
C         35.27955        33.03182        -0.33521
C         33.99075        33.75298        -0.47261
C         35.25229        35.93190        -0.05730
C         33.99709        35.24888        -0.48579
C         35.27786        37.41090         0.03186
C         34.00936        38.06441         0.29278
C         35.26993        40.25309         0.50900
C         34.03123        39.48804         0.64974
C         35.27972        41.64115         0.50740
C         34.03570        42.39136         0.37344
C         35.26726        44.55769         0.34211
C         34.05905        43.82872         0.21968
C         35.30771        45.98015         0.18201
C         34.09743        46.71544         0.08738
C         35.35477        48.80099        -0.26857
C         34.10251        48.11766        -0.16381
C         35.38274        50.21804        -0.44461
C         34.15890        50.92126        -0.63931
C         35.35383        53.06226        -0.51152
C         34.13196        52.34225        -0.61982
C         35.38564        54.49148        -0.49390
C         37.96874        18.88156         0.65428
C         36.74688        18.18124         0.47958
C         37.93247        20.30645         0.72624
C         36.67003        20.97649         0.69287
C         37.89867        23.18551         0.49188
C         36.63390        22.47989         0.92749
C         37.92441        24.45629        -0.03220
C         36.69330        25.04837        -0.59499
C         37.79470        27.31146        -0.51922
C         36.50578        26.56718        -0.68803
C         37.76695        28.75948        -0.57371
C         36.50518        29.43231        -0.45806
C         37.72284        31.56957        -0.59481
C         36.49845        30.85615        -0.45893
C         37.71084        33.03346        -0.70816
C         36.45755        33.72674        -0.40310
C         37.80625        35.91365        -0.20315
C         36.52930        35.17211        -0.11406
C         37.74882        37.40731        -0.37690
C         36.47793        38.05795         0.12619
C         37.81618        40.21769         0.50430
C         36.51577        39.47537         0.53760
C         37.76491        41.68866         0.42222
C         36.54365        42.35040         0.49952
C         37.82884        44.56342         0.51652
C         36.50794        43.81946         0.63210
C         37.80724        45.99085         0.16444
C         36.57445        46.68015         0.08831
C         37.83296        48.79293        -0.19943
C         36.58847        48.09195        -0.13051
C         37.85659        50.22277        -0.32032
C         36.61316        50.93377        -0.40908
C         37.83291        53.07662        -0.36646
C         36.59890        52.35706        -0.44523
C         37.82489        54.49755        -0.32451
C         36.56789        55.17661        -0.39703
C         40.47498        16.09978         0.91986
C         39.27936        16.76655         0.82958
C         40.44260        18.93071         0.80247
C         39.23034        18.19183         0.76135
C         40.41295        20.36995         0.79056
C         39.17465        21.03190         0.82361
C         40.44219        23.26969         0.64230
C         39.15038        22.51059         0.87187
C         40.37152        24.62630         0.07416
C         39.13674        25.22491        -0.18065
C         40.25790        27.30813        -1.00820
C         39.00827        26.62800        -0.51260
C         40.26138        28.80808        -0.83078
C         38.98651        29.48876        -0.67304
C         40.19905        31.68339        -0.77326
C         38.96727        30.91672        -0.67890
C         40.26175        33.06622        -0.63129
C         39.00196        33.81558        -0.67320
C         40.27314        35.95549        -0.25213
C         39.00161        35.25767        -0.33660
C         40.27864        37.36841        -0.07771
C         39.04436        38.10122        -0.01622
C         40.27523        40.21100         0.14987
C         39.05210        39.48136         0.15107
C         40.24931        41.64564         0.18329
C         39.02195        42.38569         0.28249
C         40.27620        44.50333         0.12082
C         39.05395        43.79160         0.26317
C         40.28431        45.93487         0.07314
C         39.04585        46.66300         0.02125
C         40.31238        48.78317        -0.11584
C         39.06394        48.08362        -0.11306
C         40.33370        50.20705        -0.24583
C         39.08646        50.92297        -0.34752
C         40.29313        53.08128        -0.35991
C         39.07938        52.36607        -0.36624
C         40.29440        54.49278        -0.23333
C         39.06116        55.21013        -0.19802
C         40.25960        57.31281         0.12793
C         39.08381        56.63258        -0.04175
C         42.94161        16.12034         0.97240
C         41.70563        16.81491         0.91858
C         42.93545        18.95089         0.81941
C         41.69664        18.23777         0.85297
C         42.91604        20.39240         0.68203
C         41.67133        21.10136         0.68215
C         42.89786        23.20755         0.24243
C         41.69267        22.50156         0.51094
C         42.87913        24.62504        -0.02800
C         41.60923        25.33798        -0.14880
C         42.76723        27.44964        -0.67460
C         41.54302        26.66331        -0.54310
C         42.70728        28.77682        -1.40947
C         41.43175        29.49685        -1.02081
C         42.73969        31.72838        -1.13443
C         41.43132        30.96295        -1.11450
C         42.73141        33.14892        -0.71656
C         41.50107        33.81077        -0.54294
C         42.74513        35.93411        -0.12218
C         41.50001        35.23580        -0.30433
C         42.76039        37.34508         0.12208
C         41.52143        38.05988         0.08561
C         42.71754        40.20451         0.31274
C         41.49813        39.49150         0.13843
C         42.69968        41.62714         0.30984
C         41.47763        42.35270         0.16680
C         42.73585        44.49378         0.21220
C         41.50051        43.78140         0.13665
C         42.75118        45.91509         0.18801
C         41.51985        46.63316         0.07591
C         42.77526        48.76326         0.10634
C         41.53566        48.06453         0.01386
C         42.78894        50.19286        -0.03066
C         41.57479        50.89428        -0.25329
C         42.84615        53.10186        -0.42016
C         41.55775        52.33793        -0.72991
C         42.78442        54.53235        -0.04350
C         41.53685        55.21343        -0.06460
C         42.71635        57.31109         0.40234
C         41.50718        56.61729         0.15048
C         44.13163        16.80972         0.93113
C         45.42286        18.93412         0.77909
C         44.16000        18.22936         0.84430
C         45.39922        20.39787         0.75927
C         44.12746        21.11127         0.56163
C         45.36303        23.18975        -0.08243
C         44.13930        22.50354         0.27082
C         45.31411        24.56017        -0.45042
C         44.07856        25.27389        -0.34952
C         45.21947        27.34952        -1.35533
C         44.07966        26.72853        -0.57862
C         45.22395        28.85820        -1.19511
C         43.99698        29.55752        -1.17906
C         45.22567        31.67141        -1.04225
C         44.00821        30.95948        -1.06371
C         45.19157        33.15938        -1.03512
C         43.95697        33.85828        -0.61266
C         45.24844        35.95649        -0.13765
C         43.98515        35.22891        -0.26469
C         45.24259        37.34432         0.33297
C         44.00423        38.03630         0.42829
C         44.88349        40.25317         1.30910
C         43.90394        39.47791         0.66244
C         44.98698        41.66558         1.14537
C         43.89673        42.35710         0.55465
C         45.17261        44.47452         0.64963
C         43.94404        43.77686         0.44983
C         45.20171        45.89569         0.55764
C         43.99010        46.61610         0.33766
C         45.22495        48.74428         0.53468
C         43.99403        48.04631         0.31835
C         45.21951        50.18970         0.46619
C         44.04724        50.87406         0.11745
C         45.24712        53.08409         0.48709
C         44.09747        52.34138        -0.06268
C         45.21371        54.48904         0.54000
C         43.96653        55.21849         0.30729
C         43.90599        56.62480         0.50865
C         47.84154        18.95481         0.32833
C         46.65824        18.29295         0.72134
C         47.86527        20.30481        -0.00849
C         46.71434        21.12828         0.35973
C         47.76389        23.11531        -0.67220
C         46.60917        22.49873        -0.16005
C         47.74198        24.51935        -0.96302
C         46.52146        25.23974        -0.84156
C         47.73126        27.32550        -1.23064
C         46.52900        26.64522        -1.08750
C         47.70762        28.79925        -1.05299
C         46.43823        29.56399        -1.15842
C         47.72327        31.74764        -1.25085
C         46.44905        30.98044        -1.12835
C         47.75781        33.17958        -0.89867
C         46.48563        33.92735        -0.94218
C         47.72497        36.07014        -0.68466
C         46.44500        35.31487        -0.44783
C         47.75136        37.38838         0.02593
C         46.55514        37.97399         0.54037
C         47.90545        39.99070         1.12748
C         46.74841        39.17017         1.27407
C         47.99239        41.35460         1.52792
C         46.11771        42.43938         1.53180
C         47.64160        44.40868         1.11553
C         46.33667        43.75146         1.07806
C         47.63135        45.84453         1.02448
C         46.44156        46.58671         0.80221
C         47.66233        48.76187         0.97767
C         46.42294        48.03031         0.79061
C         47.65065        50.22500         0.96294
C         46.44487        50.92158         0.73046
C         47.63764        53.08126         1.04419
C         46.43830        52.35865         0.77412
C         47.57944        54.49714         1.12558
C         46.40348        55.17662         0.90543
C         49.99312        20.14164        -1.28643
C         48.95244        20.92584        -0.74436
C         50.03720        22.95036        -1.65710
C         48.95197        22.33830        -0.96482
C         50.09956        24.42386        -1.81530
C         48.93196        25.19413        -1.36633
C         50.24046        27.28792        -1.40164
C         48.96658        26.60747        -1.37702
C         50.25055        28.77228        -1.37336
C         48.99820        29.52388        -1.07076
C         50.26427        31.68555        -0.79972
C         49.03026        31.00874        -1.27116
C         50.23443        33.11363        -0.57151
C         48.97677        33.84264        -0.66561
C         50.21910        35.93916        -0.30250
C         48.99377        35.25876        -0.47338
C         50.23556        37.35833        -0.13557
C         48.99266        38.04633         0.11453
C         50.23211        40.17996         0.40826
C         49.04494        39.40758         0.52127
C         50.18105        41.57169         0.58015
C         49.00156        42.23378         1.05876
C         50.15467        44.44847         1.00406
C         48.87409        43.68578         1.09448
C         50.15482        45.91113         0.81181
C         48.90577        46.58331         1.36476
C         50.14607        48.75413         1.15455
C         48.84363        48.06256         1.11833
C         50.15934        50.25973         1.16013
C         48.86127        50.96073         1.12688
C         50.14545        53.06185         1.13433
C         48.88004        52.36786         1.13633
C         50.98015        20.72002        -2.07246
C         52.99160        23.29415        -2.54693
C         50.99059        22.11044        -2.25586
C         52.83986        24.54422        -1.93533
C         51.50603        25.21640        -1.89906
C         52.69489        27.26028        -0.94261
C         51.45168        26.60962        -1.45253
C         52.69964        28.73608        -0.65932
C         51.50353        29.52716        -1.07686
C         52.63991        31.53659        -0.10859
C         51.41419        30.93757        -0.64191
C         52.65280        33.04728         0.00584
C         51.43086        33.79605        -0.32236
C         52.68961        35.92410        -0.10646
C         51.47034        35.22753        -0.25378
C         52.70352        37.33651        -0.04141
C         51.46420        38.05300        -0.03158
C         52.69207        40.15898         0.21508
C         51.47946        39.47991         0.14039
C         52.68207        41.60428         0.64384
C         51.41539        42.32569         0.17252
C         52.62874        44.51177         0.24406
C         51.43773        43.74322         0.67697
C         52.54756        45.89381         0.04601
C         51.27119        46.60014         0.35054
C         52.07573        48.89860        -0.28393
C         51.22980        48.06402         0.41666
C         52.34806        50.28719        -0.01091
C         51.34153        51.00116         0.65332
C         51.31980        52.41806         0.83516
C         55.37645        23.27182        -2.19233
C         54.24013        22.65221        -2.66949
C         55.30764        24.57167        -1.63727
C         54.03963        25.23344        -1.52947
C         55.20374        27.31873        -0.85012
C         54.00770        26.59544        -1.09743
C         55.21717        28.74042        -0.59045
C         53.97564        29.48440        -0.53675
C         55.16462        31.69148        -0.42965
C         53.93464        30.83165        -0.27963
C         55.11108        33.04416         0.28108
C         53.95084        33.74250         0.12737
C         55.22226        35.91460         0.27406
C         54.00240        35.19333        -0.25184
C         55.19624        37.35006         0.18881
C         53.95068        38.04805         0.05205
C         55.16128        40.20768         0.17727
C         53.93435        39.46508         0.14493
C         55.13764        41.66753         0.15026
C         53.92382        42.36217         0.24523
C         55.09252        44.49865         0.01187
C         53.86814        43.78384         0.13515
C         55.05432        45.91278        -0.13734
C         53.79593        46.55898        -0.27554
C         54.98064        48.73407        -0.62669
C         53.87498        47.88736        -0.75203
C         54.77371        50.16880        -0.73351
C         53.60976        50.84851        -0.46401
C         57.76645        24.57130        -1.19457
C         56.51538        25.25184        -1.23556
C         57.67580        27.31981        -0.57132
C         56.46644        26.62994        -0.89701
C         57.66174        28.72172        -0.28546
C         56.43026        29.43322        -0.38414
C         57.68963        31.58293         0.32233
C         56.46017        30.90762        -0.30230
C         57.55992        32.90488         0.97916
C         56.25932        33.71838         1.01735
C         57.50035        36.03291         1.12955
C         56.35045        35.23905         0.73142
C         57.59778        37.40732         0.72566
C         56.40220        38.08620         0.29868
C         57.64022        40.25153         0.03442
C         56.37539        39.51305         0.17395
C         57.62703        41.72197         0.07871
C         56.37120        42.39626         0.06791
C         57.56480        44.55949        -0.00330
C         56.34318        43.81533         0.03153
C         57.51987        45.98738        -0.10286
C         56.26890        46.67149        -0.22256
C         57.47435        48.81152        -0.30815
C         56.24428        48.09393        -0.36214
C         58.92541        25.22342        -0.83995
C         60.10082        27.28747        -0.14954
C         58.90754        26.60664        -0.52506
C         60.06722        28.60930         0.22077
C         58.85412        29.36254         0.18061
C         59.79576        31.16251         1.59240
C         58.80793        30.69518         0.70096
C         59.67619        32.40469         2.18597
C         58.54067        33.21130         1.90213
C         59.66930        36.31660         2.27840
C         58.54183        35.56085         1.97643
C         59.82842        37.58683         1.71337
C         58.80334        38.14640         0.95154
C         60.07653        40.38666         0.74468
C         58.93923        39.52098         0.40528
C         60.04280        41.72754         0.52099
C         58.83279        42.44126         0.17491
C         60.00808        44.66123         0.08796
C         58.81333        43.88299         0.09110
C         59.96886        46.03562         0.00359
C         58.73122        46.73168        -0.09395
C         58.67689        48.15287        -0.18138
O         51.92653        22.62384        -3.15992
O         50.45680        49.47159         2.39891
O         51.10139        43.96811         2.06712
O         48.45929        31.46036        -2.52812
O         45.76870        39.59516         2.17707
O         26.00842        29.28852        -0.49262
O         38.30193        33.56473        -1.96054
O         46.28127        21.01310         1.74965
O         50.66619        24.93168        -3.05057
O         43.58874        27.51775         0.54608
O         37.28306        39.69825         1.78687
O         25.15080        41.48298         1.57432
O         57.48252        31.53406        -1.15333
O         27.03987        43.49459         0.71111
O         58.42153        34.36229         2.69755
O         45.77853        33.75302        -2.25019
O         37.21715        44.29588         1.83033
O         35.80681        35.39136         1.19328
O         58.51544        39.66405        -0.98569
O         34.51939        24.51607        -1.39515
O         39.85088        23.13825         2.00000
O         29.65203        39.45289        -1.43666
O         26.02546        31.09974         2.58538
O         51.05352        29.32979        -2.46636
O         47.03967        41.85861         2.41676
O         33.30697        35.83745        -1.61346
O         33.49319        22.98351         1.73224
O         52.46275        27.79807         0.43597
O         33.26168        39.85830         1.82758
O         36.73401        25.72586        -1.88866
O         42.02369        31.45302        -2.39169
O         48.42970        29.14918         0.22082
O         52.73936        48.37846        -1.40039
O         31.95278        46.34043         1.35754
O         26.76202        39.09242         2.10124
O         33.18248        33.15252        -1.54957
O         27.87489        28.08853         2.34680
O         52.45500        32.17609         1.19559
O         43.84512        52.80790        -1.46196
O         28.39645        41.72550        -1.72350
O         51.43664        42.41369        -1.27421
H         51.46377        41.50213        -1.63535
O         55.09969        32.12263        -1.84813
H         56.03408        32.13794        -2.17034
O         33.10829        31.92546         1.85910
H         33.09455        31.06728         2.33316
O         27.74789        44.19728        -2.81050
H         28.48903        44.59928        -3.30894
O         32.08260        51.06070        -2.77194
H         32.90740        51.58890        -2.83203
O         47.70281        36.38558        -2.12910
H         47.47938        35.55700        -2.60808
O         52.64025        41.59813         2.09767
H         53.46681        41.18700         2.42510
O         36.54285        22.70000         2.36229
H         37.40612        22.46184         2.76226
O         55.80922        33.65275         2.41025
H         56.53058        34.02700         2.96790
O         54.19897        35.09809        -1.71845
H         54.59563        34.21642        -1.92172
O         25.31960        33.50639         2.99774
H         25.78726        32.74988         3.43008
O         41.47284        52.22859        -2.18809
H         42.40509        52.20318        -2.51263
O         40.21519        27.10711        -2.46643
H         40.00118        26.16530        -2.63595
O         29.38179        38.59477         2.05975
H         28.51230        38.86871         2.45226
O         44.93091        27.05188        -2.75437
H         45.55080        27.56013        -3.31767
O         31.22446        48.77981         1.24820
H         31.56946        48.11197         1.88772
O         49.03507        46.45658         2.82748
H         49.78573        47.02368         3.10899
O         23.66536        35.59389         2.58046
H         24.26432        35.01205         3.10987
O         37.64766        37.58832        -1.84871
H         38.37280        37.07284        -2.26445
O         42.62211        28.52159        -2.83030
H         42.35758        29.36472        -3.26068
H         21.92700        26.81803         1.00182
H         21.89827        29.27307         1.17152
H         22.02944        31.18622         0.38150
H         22.04512        33.62044         0.35069
H         21.98571        35.48728         0.13490
H         22.09251        37.85651        -0.33759
H         21.98618        39.77613        -0.18693
H         21.98985        42.10086        -0.78711
H         22.04228        44.04375        -1.22231
H         22.12180        46.41062        -1.89130
H         25.27166        23.42591         0.72843
H         23.15572        24.66740         0.85577
H         25.51020        49.74953        -2.18671
H         23.39549        48.50018        -2.24751
H         26.93588        22.49785         0.70952
H         27.23444        50.63083        -2.39575
H         29.03548        21.29023         0.48597
H         29.38713        51.81362        -2.26124
H         32.90209        19.16508         0.58409
H         30.77484        20.32036         0.58478
H         32.78676        54.05272        -0.24506
H         30.71284        52.83319        -0.71420
H         34.62429        18.26032         0.25081
H         34.44743        55.05767        -0.56467
H         36.74687        17.08764         0.38533
H         36.53727        56.27387        -0.39118
H         40.49605        15.00237         0.98255
H         38.34845        16.18527         0.82745
H         40.25649        58.40279         0.27147
H         38.14183        57.19587        -0.03145
H         42.93736        15.02286         1.03619
H         42.68999        58.40012         0.54975
H         45.07287        16.24615         0.96703
H         44.81571        57.18895         0.74900
H         48.73635        18.33571         0.17594
H         46.71767        17.20374         0.84968
H         48.48213        55.07148         1.37083
H         46.41277        56.27100         0.98112
H         49.99736        19.05381        -1.14003
H         50.15945        54.15446         1.24062
H         51.74562        20.10244        -2.55934
H         52.23820        53.00225         0.68282
H         56.34148        22.76235        -2.30245
H         54.29305        21.67140        -3.15877
H         55.66249        50.78646        -0.93862
H         53.67225        51.94789        -0.48086
H         57.81901        23.49957        -1.42473
H         57.46306        49.90714        -0.39114
H         59.87781        24.67597        -0.79695
H         61.04960        26.73208        -0.13665
H         61.00107        29.10418         0.51951
H         60.64272        30.51806         1.86237
H         60.41059        32.75638         2.92091
H         60.43081        35.90502         2.95253
H         60.74907        38.14880         1.91592
H         60.98949        39.93997         1.16323
H         60.94719        42.31122         0.74196
H         60.98511        44.16246         0.14174
H         60.90525        46.61236         0.00213
H         59.61700        48.72310        -0.15894
