         232
 CSIRO Nanostructure Databank - Neutral Graphene Oxide Data Set
C        -11.12232         0.63243        -0.13226
C         -9.88787         1.39697        -0.05270
C         -8.70259         0.65867         0.55007
C         -7.37360         1.36407         0.36123
C         -6.19338         0.65291         0.66676
C         -4.96278         1.34005         0.78244
C         -3.71435         0.60815         1.04040
C         -2.48424         1.27765         0.94927
C         -1.24273         0.47383         0.87111
C          0.04309         1.13178         0.52874
C          1.33979         0.41923         0.77636
C          2.64487         1.13795         0.60085
C          3.88074         0.55699         1.17781
C          5.08788         1.33784         1.07647
C          6.37365         0.72068         1.50746
C          7.62554         1.45314         1.17304
C          8.86761         1.08747         1.63485
C         10.10627         1.60567         1.10022
C         11.27619         0.73111         1.08899
C         -9.82105         2.70004        -0.41831
C         -8.51928         3.43094        -0.61361
C         -7.32598         2.71477        -0.01136
C         -6.10126         3.40084         0.03939
C         -4.94758         2.72906         0.49721
C         -3.68877         3.48402         0.66227
C         -2.39854         2.74275         0.83937
C         -1.10121         3.44789         0.51123
C          0.12763         2.62077         0.43274
C          1.35615         3.18048        -0.21037
C          2.62940         2.56768         0.24993
C          3.77012         3.31011         0.34327
C          5.02896         2.65932         0.63687
C          6.24596         3.38444         0.20799
C          7.59572         2.68505         0.36414
C          8.81681         3.52104         0.29877
C         10.07660         2.86479         0.52067
C         -8.53680         4.89581        -0.22589
C         -7.36238         5.59932        -0.21164
C         -6.06455         4.84438        -0.45199
C         -4.90190         5.61079         0.20756
C         -3.64190         4.81576        -0.01001
C         -2.37187         5.45970        -0.41711
C         -1.07633         4.77973        -0.17818
C          0.06348         5.34868        -0.66666
C          1.34114         4.57901        -0.72336
C          2.69338         5.29937        -0.84445
C          3.63429         4.82578         0.29801
C          4.97405         5.56692         0.26338
C          6.24323         4.83953         0.10404
C          7.43616         5.53078        -0.14996
C          8.70003         4.85165        -0.07734
C         -7.28001         7.03607        -0.16103
C         -6.07008         7.73448        -0.31510
C         -4.82169         7.02910        -0.28184
C         -3.60469         7.65538        -0.55931
C         -2.36060         6.92049        -0.64727
C         -1.17845         7.52190        -1.02662
C         -0.02284         6.63884        -1.48956
C          1.38229         7.36933        -1.69478
C          2.56019         6.81837        -0.86623
C          3.69187         7.56684        -0.74440
C          4.95289         7.00905        -0.19007
C          6.23620         7.65721        -0.53970
C          7.40727         6.95343        -0.42666
C         -6.01998         9.15924        -0.53979
C         -4.83451         9.79236        -0.79099
C         -3.58588         9.07143        -0.84680
C         -2.37594         9.69019        -1.14481
C         -1.15530         8.94985        -1.23949
C          0.06346         9.58792        -1.47683
C          1.31290         8.89403        -1.51039
C          2.48222         9.60224        -1.40379
C          3.80199         8.89491        -1.49716
C          5.01163         9.70173        -1.10255
C          6.17636         9.08852        -0.80199
C        -11.11204        -0.72821        -0.11427
C         -9.88854        -1.50335        -0.03163
C         -8.56763        -0.76769        -0.16048
C         -7.37705        -1.48203         0.44982
C         -6.26179        -0.80094         0.83561
C         -5.10185        -1.46030         1.56477
C         -3.74875        -0.81649         1.24631
C         -2.54255        -1.57070         1.42943
C         -1.24294        -0.82135         1.65579
C          0.03045        -1.64368         1.49370
C          1.29297        -0.85522         1.55592
C          2.61656        -1.54704         1.72287
C          3.87752        -0.80186         1.47814
C          5.09951        -1.55909         1.51088
C          6.37208        -0.82827         1.73592
C          7.61540        -1.60003         1.49257
C          8.89137        -1.04152         1.70118
C         10.05280        -1.47871         1.01896
C         11.25210        -0.63275         1.02544
C         -9.91209        -2.86711         0.02368
C         -8.67023        -3.61992         0.09174
C         -7.54644        -2.92993         0.83469
C         -6.23392        -3.67274         0.79042
C         -5.08656        -2.99538         1.44422
C         -3.77171        -3.72921         1.45207
C         -2.51251        -2.95563         1.51911
C         -1.24894        -3.71372         1.71020
C          0.05288        -2.99298         1.67628
C          1.34318        -3.75610         1.75894
C          2.60746        -3.01031         1.59308
C          3.78105        -3.64291         1.20617
C          5.04795        -2.91540         1.22944
C          6.32277        -3.70482         1.02019
C          7.55135        -2.84415         0.85137
C          8.71155        -3.37467         0.20733
C          9.94393        -2.65639         0.26638
C         -8.54932        -4.87659        -0.39944
C         -7.20076        -5.50883        -0.59860
C         -6.12499        -4.93815         0.29251
C         -4.91558        -5.72631         0.46911
C         -3.72850        -5.12327         0.95573
C         -2.51837        -5.84649         0.99079
C         -1.24506        -5.19193         1.40217
C          0.03569        -5.94369         1.18814
C          1.37027        -5.28448         1.46265
C          2.59934        -5.78094         0.74671
C          3.72903        -4.98977         0.64765
C          4.79586        -5.19767        -0.42686
C          6.16932        -4.68199        -0.10412
C          7.26853        -5.08766        -0.86696
C          8.54970        -4.51075        -0.63336
C         -7.20177        -7.01101        -0.70235
C         -6.08446        -7.76253        -0.45666
C         -4.94285        -7.12344         0.21269
C         -3.81444        -7.85641         0.61256
C         -2.56843        -7.24921         0.83306
C         -1.32101        -8.03587         0.81416
C         -0.13695        -7.30878         1.32327
C          2.14620        -8.45494         0.33803
C          2.45282        -7.00009        -0.16169
C          3.71407        -7.44903        -0.91175
C          4.91817        -6.59701        -0.95857
C          5.95925        -6.84410        -1.98693
C          7.10542        -6.09768        -1.91199
C         -5.99007        -9.06638        -1.12589
C         -4.87519        -9.80806        -1.37333
C         -3.62778        -9.59686        -0.64552
C         -2.34371        -9.56156        -1.09789
C         -1.15851        -9.18906        -0.27254
C          0.10842        -9.44881        -1.01433
C          1.41935        -9.13623        -0.81138
C          2.39923        -9.31147        -1.88537
C          3.53106        -8.52870        -1.92484
C          4.57738        -8.67677        -2.91307
C          5.71358        -7.91202        -2.92967
O          4.96598         6.65764         1.25226
O         -5.12845         5.64129         1.63443
H         -5.94872         6.15033         1.80521
O          8.99701         0.04420         2.57337
O         -1.35211        -4.69986         2.79753
O         -5.27378        -1.13480         2.96792
H         -4.96271        -1.91726         3.48334
O         -3.87590        -9.25346         0.70156
O          1.42569        -6.66162        -1.12494
H          1.73281        -5.88350        -1.63727
O          6.56402        -4.48793         2.24073
H          6.52921        -3.87202         3.00331
O          1.82986         7.07415        -3.00830
O          4.30283        -4.40926        -1.57253
H          4.36210        -3.45857        -1.33541
O         -4.61318        -3.61816         2.68135
O          4.82449        -7.66682         0.02166
O         -3.08917         3.41175         1.97503
O          0.75075        -8.08516         1.94996
H          0.38428        -9.00411         1.97930
O          1.89891        -0.92296         2.87548
O         -8.30031        -0.54035        -1.54539
H         -9.07287        -0.08753        -1.94541
O          4.03680         8.54665        -2.88936
H          3.25247         7.98750        -3.17542
O          2.95484         5.15689         1.52872
H          3.44208         5.91890         1.92939
O          3.29228         4.98046        -2.10353
H          2.81351         5.53977        -2.77843
O         -0.18458         3.33311         1.66799
O          1.49049        -4.77493         2.80826
O         -1.24471        -0.39438         3.04365
H         -1.16261        -1.18468         3.61825
O         -7.94474        -2.91088         2.24248
H         -8.29042        -2.01549         2.45762
O         -1.28426        -9.44428         1.15901
O         -8.31280         3.41435        -2.06760
H         -7.46909         3.90124        -2.25215
O         -0.45369         6.20737        -2.79770
H          0.33479         6.36477        -3.39256
O         -5.88831         4.82387        -1.89209
H         -4.92713         4.70152        -2.09108
O         -6.78474        -5.09223        -1.96281
H         -7.53590        -5.26990        -2.56812
O         -8.92896         0.39361         1.87900
O         -0.73967         0.44674        -0.50980
O          1.24514         3.42820        -1.64287
O          6.33088         0.11369         2.83480
O          6.87900         2.64325        -0.90813
O          2.83376        -9.06896         1.12558
O          2.09258         0.25224        -0.46879
O         -3.23336         4.71389        -1.41042
H         12.21057        -1.14885         0.85598
H         12.25283         1.22589         0.96434
H         11.00301         3.34492         0.17188
H          9.61432         5.44984        -0.20986
H          8.36566         7.45903        -0.61863
H          7.10263         9.67138        -0.68033
H          4.98291        10.79194        -1.25109
H          2.45134        10.69363        -1.24958
H          0.07681        10.68380        -1.59281
H         -2.34971        10.77473        -1.33132
H         -4.81927        10.87625        -0.97845
H         -6.96068         9.72910        -0.53079
H         -8.22143         7.60725        -0.13655
H         -9.50118         5.41838        -0.12324
H        -10.72774         3.19999        -0.79874
H        -12.07397         1.17414        -0.24543
H        -12.06040        -1.28464        -0.16488
H        -10.87007        -3.40808        -0.03452
H         -9.41177        -5.35573        -0.89229
H         -8.03605        -7.46295        -1.26487
H         -6.90454        -9.35054        -1.67287
H         -4.93509       -10.63015        -2.10347
H         -2.15642        -9.77711        -2.15966
H         -0.09526        -9.88303        -2.01020
H          2.21109       -10.06007        -2.67175
H          4.45999        -9.47577        -3.66078
H          6.48226        -8.11064        -3.69170
H          7.94139        -6.27695        -2.60439
H          9.41609        -4.88631        -1.19774
H         10.80514        -3.02358        -0.31070
