         410
 CSIRO Nanostructure Databank - Neutral Graphene Oxide Data Set
C         28.37590        28.25881        -3.84770
C         28.21631        29.54842        -3.30749
C         26.93892        30.18340        -3.06455
C         27.96852        31.60670        -1.24439
C         26.82861        31.16220        -2.13607
C         27.97884        33.10197        -0.99014
C         26.76913        33.78135        -0.83232
C         27.94420        35.89940        -0.60780
C         26.74620        35.16074        -0.65906
C         27.90348        37.35448        -0.57839
C         26.73067        38.08288        -0.58437
C         27.84138        40.26520        -0.35302
C         26.69966        39.50251        -0.47933
C         27.81711        41.71721        -0.19049
C         26.61985        42.46372        -0.27342
C         27.85819        44.55220        -0.10591
C         26.64109        43.85040        -0.19585
C         27.87846        46.00027        -0.12647
C         30.46121        27.67484        -2.52958
C         29.41883        27.40489        -3.46796
C         31.01824        28.95238        -2.31344
C         29.35054        30.21201        -2.76283
C         30.53746        31.71599        -1.22684
C         29.31391        31.15084        -1.75408
C         30.46303        33.08030        -0.85237
C         29.21298        33.79743        -0.83790
C         30.42817        35.93519        -0.34517
C         29.19025        35.21355        -0.62992
C         30.41808        37.35589        -0.23372
C         29.18740        38.07040        -0.61532
C         30.36066        40.23779         0.04360
C         29.15075        39.59209        -0.48452
C         30.26042        41.67078         0.34045
C         29.03398        42.41408         0.00113
C         30.34983        44.53641        -0.05974
C         29.07893        43.82912        -0.01068
C         30.31249        45.96021        -0.45521
C         29.03517        46.68112        -0.29440
C         32.89984        24.42683         0.25657
C         31.84917        25.03945        -0.48639
C         33.01439        27.20967        -0.98060
C         31.90711        26.27467        -1.12445
C         32.84102        28.67003        -0.61701
C         31.83139        29.53359        -1.29693
C         32.86456        31.62141        -0.34797
C         31.75773        30.93661        -1.03488
C         32.83411        32.98423        -0.12585
C         31.75597        33.83722        -0.74011
C         32.81978        35.92307         0.24063
C         31.63567        35.23578        -0.18595
C         32.76929        37.35147         0.41981
C         31.59352        38.07643         0.11042
C         32.76713        40.30530         0.46402
C         31.54963        39.54399         0.21799
C         32.80197        41.67846         0.43877
C         31.55758        42.45482         0.48003
C         32.84289        44.56901         0.02583
C         31.56374        43.88766         0.12285
C         32.88032        45.96662        -0.17849
C         31.65121        46.71451        -0.49635
C         32.86540        48.81560        -0.10272
C         31.69638        48.17528        -0.34637
C         35.28394        23.04132         1.45508
C         35.40011        24.21537         0.68099
C         34.22092        24.63567        -0.06782
C         35.47048        27.23590        -0.25682
C         34.25121        26.61660        -0.79536
C         35.33312        28.66145         0.09497
C         34.04423        29.38206        -0.05566
C         35.25498        31.52698         0.27464
C         34.08651        30.86925        -0.01491
C         35.29056        33.01611         0.18973
C         33.97963        33.67628         0.58781
C         35.26298        35.84417         0.85963
C         34.00776        35.17997         0.46005
C         35.26868        37.34692         1.05120
C         33.96359        38.07871         0.91339
C         35.30603        40.26952         0.66523
C         34.00440        39.57435         0.83227
C         35.31426        41.64930         0.51050
C         34.05747        42.44648         0.77629
C         35.30070        44.52038         0.06196
C         34.07092        43.86209         0.22808
C         35.34233        45.95514        -0.09768
C         34.11190        46.68179        -0.09509
C         35.36295        48.80194         0.04891
C         34.12653        48.10979        -0.04689
C         35.41769        50.22423         0.25762
C         37.55818        23.27007         2.16219
C         36.34293        22.57790         2.22119
C         37.72775        24.43118         1.39168
C         36.61865        24.95825         0.67358
C         37.67199        27.18787         1.05844
C         36.70000        26.40070         0.24855
C         37.40971        28.50688         1.27017
C         36.39234        29.31955         0.66690
C         37.83419        31.56550         0.64180
C         36.53631        30.79579         0.46233
C         37.83668        33.04371         0.61658
C         36.58803        33.76141         0.36995
C         37.76885        35.90292         0.82186
C         36.56684        35.19128         0.67915
C         37.75793        37.35648         0.84124
C         36.53951        38.07934         0.85317
C         37.77254        40.16786         0.56013
C         36.53199        39.48972         0.67234
C         37.77920        41.59522         0.16017
C         36.52651        42.37400         0.25888
C         37.79429        44.45110        -0.24594
C         36.53141        43.75471         0.10053
C         37.80742        45.92683        -0.47973
C         36.56195        46.68024        -0.20997
C         37.86584        48.80560        -0.10020
C         36.59050        48.08441        -0.09024
C         37.86897        50.23869         0.16430
C         36.60402        50.89293         0.34690
C         40.94115        20.21851         1.73478
C         39.94056        20.88310         2.45080
C         40.30549        22.97329         1.18658
C         39.62507        22.22472         2.18862
C         40.29692        24.43482         1.09235
C         39.05407        25.13868         1.51368
C         40.28868        27.38261         1.22917
C         39.00509        26.63225         1.49167
C         40.36727        28.81052         1.27631
C         39.24365        29.65251         1.54226
C         40.33112        31.66815         0.87374
C         39.11729        30.94126         1.05920
C         40.28607        33.07017         0.84864
C         39.03261        33.76362         0.78138
C         40.26522        35.93786         0.77264
C         39.02548        35.21129         0.80048
C         40.25944        37.36457         0.74570
C         38.99895        38.05741         0.77065
C         40.24902        40.20414         0.89618
C         38.98273        39.46940         0.67706
C         40.27329        41.68409         0.72535
C         39.08196        42.33771         0.12480
C         40.24760        44.50020         0.32221
C         39.08828        43.80808         0.07900
C         40.21427        46.01406         0.45341
C         39.16671        46.63166        -0.50857
C         40.34064        48.79876        -0.35611
C         39.05662        48.11093        -0.23913
C         40.33491        50.32104        -0.10168
C         39.07567        50.95510         0.29529
C         40.37515        52.92975         0.97569
C         39.17282        52.28991         0.81805
C         42.72858        20.31125        -0.03639
C         41.58468        20.87412         0.67007
C         42.76934        23.28235        -0.22358
C         41.15931        22.18972         0.37600
C         42.69622        24.56747         0.34688
C         41.43918        25.19348         0.75015
C         42.71993        27.35454         0.75759
C         41.46480        26.64815         0.92451
C         42.76277        28.77695         0.73307
C         41.56159        29.51514         0.93508
C         42.78506        31.65635         0.69152
C         41.56265        30.93648         0.88336
C         42.78712        33.06464         0.72811
C         41.55048        33.80979         1.15103
C         42.73309        35.94237         0.54207
C         41.51517        35.25511         0.74508
C         42.74060        37.38884         0.52933
C         41.50257        38.08393         0.69704
C         42.74770        40.22788         0.81905
C         41.53713        39.49968         0.81061
C         42.77746        41.67922         0.89113
C         41.55063        42.41905         0.70664
C         42.68034        44.58411         0.95361
C         41.48772        43.80038         0.59705
C         42.75166        46.01760         0.57907
C         41.57455        46.68232         0.25962
C         42.81043        48.77753        -0.07399
C         41.60259        48.07495        -0.08664
C         42.81359        50.23438        -0.00055
C         41.61372        50.94369         0.23477
C         42.87937        52.92985         0.82966
C         41.63412        52.28322         0.68628
C         43.79712        21.04328        -0.46717
C         45.17290        23.11507         0.01921
C         43.93972        22.47890        -0.25983
C         45.17793        24.52321         0.28242
C         43.95079        25.23690         0.45882
C         45.19641        27.34750         0.46700
C         43.96126        26.65120         0.61704
C         45.17575        28.75532         0.31824
C         43.97927        29.48454         0.46410
C         45.18085        31.65940         0.23118
C         43.99091        30.93068         0.43353
C         45.21297        33.07316         0.31244
C         43.98543        33.79027         0.52751
C         45.19444        35.90261         0.08605
C         43.95499        35.20944         0.43459
C         45.20079        37.43634         0.13173
C         43.94982        38.12272         0.48213
C         45.24456        40.23367         0.72376
C         43.98873        39.52610         0.69224
C         45.26147        41.65857         0.93429
C         43.99789        42.35902         1.01091
C         45.23746        44.59658         1.26602
C         43.95627        43.82219         1.21577
C         45.24859        46.02169         0.84208
C         44.03873        46.68073         0.53318
C         45.27205        48.77035         0.09357
C         44.05687        48.07830         0.16893
C         45.23720        50.17913        -0.47118
C         44.03727        50.93765         0.04704
C         44.05687        52.27623         0.46201
C         47.60601        23.00517         0.29810
C         46.42792        22.39390         0.02518
C         47.67071        24.45220         0.55603
C         46.41916        25.22490         0.40491
C         47.70575        27.34697         0.25034
C         46.44676        26.62734         0.40431
C         47.69221        28.73824         0.02995
C         46.40657        29.43541        -0.09372
C         47.69438        31.65137        -0.04713
C         46.40949        30.95183        -0.14738
C         47.69772        33.05284         0.09219
C         46.45755        33.77691         0.20770
C         47.68916        35.92121         0.24562
C         46.47555        35.19053         0.20829
C         47.66505        37.35242         0.37127
C         46.48210        38.10804         0.37242
C         47.72070        40.24661         0.62764
C         46.47789        39.52666         0.60881
C         47.73692        41.67442         0.79697
C         46.49554        42.35293         1.01747
C         47.80131        44.57446         1.19721
C         46.51460        43.81104         1.30098
C         47.73833        46.02117         0.92040
C         46.51758        46.70490         0.74771
C         47.71078        48.84986         0.27150
C         46.51138        48.12070         0.38703
C         47.68513        50.24821        -0.08439
C         46.53616        50.90849        -0.35026
C         50.26064        24.50709         0.16500
C         49.00550        25.21237         0.46900
C         50.13371        27.33900        -0.20007
C         48.95784        26.65678         0.16879
C         50.11774        28.76686        -0.31265
C         48.89474        29.47361        -0.15901
C         50.13416        31.62281        -0.23330
C         48.90016        30.91572        -0.17135
C         50.14830        33.04889        -0.14203
C         48.93360        33.76577         0.03774
C         50.17233        35.87085         0.09650
C         48.93900        35.19464         0.16024
C         50.22682        37.30243         0.41245
C         48.92665        38.06799         0.61158
C         50.17874        40.21478         0.40150
C         48.94493        39.53932         0.51301
C         50.18450        41.65412         0.46705
C         48.99180        42.35791         0.73961
C         50.32930        44.57114         0.63484
C         49.09817        43.81595         1.01793
C         50.29688        45.95720         0.64352
C         49.03540        46.71584         0.90135
C         50.22635        48.82791        -0.00684
C         49.00534        48.22734         0.56854
C         51.37313        25.18023        -0.21322
C         52.57193        27.29904        -0.69238
C         51.39623        26.61908        -0.37864
C         52.53274        28.76733        -1.04885
C         51.32459        29.49756        -0.53777
C         52.61334        31.61939        -0.49222
C         51.35066        30.89569        -0.44347
C         52.61288        33.05280        -0.39479
C         51.39228        33.75914        -0.25094
C         52.60808        35.92259        -0.33528
C         51.39166        35.18839        -0.16511
C         52.61188        37.36302        -0.27656
C         51.42750        38.05956         0.05201
C         52.61600        40.18197        -0.03647
C         51.39812        39.47520         0.13586
C         52.59246        41.55228         0.35027
C         51.44317        42.35787         0.39232
C         52.64481        44.47916        -0.22858
C         51.53199        43.81256         0.33076
C         52.71974        45.94963        -0.24499
C         51.51319        46.74051         0.34093
C         51.38268        48.15290        -0.06452
C         55.00881        27.36204        -0.99398
C         53.84702        26.64998        -0.82278
C         55.02782        28.79589        -0.91715
C         53.82583        29.49953        -0.77271
C         55.12385        31.61417        -0.26379
C         53.82169        30.90796        -0.58124
C         55.08501        33.09270        -0.59957
C         53.84511        33.78265        -0.52211
C         55.02955        35.93355        -0.83791
C         53.82184        35.21421        -0.57569
C         54.99623        37.38631        -0.93688
C         53.81177        38.09600        -0.57867
C         54.92932        40.23195        -1.09451
C         53.81112        39.52795        -0.52480
C         54.88331        41.66938        -1.39657
C         54.14666        42.52585        -0.56290
C         54.42022        44.42682        -2.00462
C         53.72262        43.81520        -0.92611
C         54.28747        45.85671        -2.16341
C         53.58214        46.58480        -1.25932
C         56.27539        29.52780        -0.99244
C         56.32426        30.86256        -0.78161
C         56.25385        33.82256        -0.81633
C         56.22410        35.21274        -0.97223
C         56.11155        38.11584        -1.38643
C         56.04715        39.49825        -1.52403
C         55.45485        42.26747        -2.54262
C         55.28463        43.63274        -2.78957
O         30.98709        46.24968        -1.72926
O         49.16935        47.74700         1.93659
O         35.23885        36.47782         2.21714
O         48.42260        24.83225         1.76495
O         37.43706        30.99839        -0.70313
O         38.16615        29.14003         2.25484
O         40.36552        49.75471        -1.45497
O         30.72235        26.56266        -1.76402
O         41.60781        22.76409        -0.82580
O         49.70238        37.58551         1.76504
O         43.09605        44.26529         2.32925
O         53.82366        42.10236         0.73399
O         38.54878        41.74431        -1.10818
O         35.93104        33.49752        -1.01092
O         34.45254        25.32026        -1.29347
O         52.72429        46.50833         1.10916
O         39.07618        25.90754         2.77381
O         32.96981        28.85372         0.83329
O         38.60868        22.78320         2.96079
O         36.62816        26.86699        -1.11902
O         30.75925        42.08792         1.66114
O         40.06586        41.10883         2.06727
O         30.60727        29.88395        -3.30646
O         33.77367        38.90239         2.13059
O         29.35655        38.94395        -1.78817
O         46.26949        30.15325        -1.37772
O         37.69314        45.00943        -1.62588
O         45.11510        36.71646        -1.14335
O         45.87458        44.26309         2.54979
O         48.65065        44.21824         2.35461
O         32.20708        34.06284        -2.13829
H         32.31796        33.18174        -2.55709
O         34.02043        42.63003         2.23531
H         33.83074        41.75637         2.64170
O         39.72721        46.50242        -1.83349
H         39.15096        45.87520        -2.33322
O         41.61763        33.85378         2.64432
H         42.44310        34.32854         2.88173
O         52.38968        28.78783        -2.52705
H         52.35352        29.72945        -2.80035
O         39.77691        46.31031         1.80495
H         40.42481        45.92025         2.43021
O         33.85328        33.38384         2.02116
H         33.15139        33.95952         2.39146
O         55.24581        31.57578         1.20816
H         55.24149        30.63163         1.47409
O         27.74300        30.95984         0.05641
H         28.48503        31.21683         0.64392
O         44.99261        50.02434        -1.91792
H         45.75243        49.53143        -2.29279
H         27.52946        27.80688        -4.38751
H         26.05313        29.83021        -3.61343
H         25.83664        31.59373        -1.94240
H         25.81752        33.23568        -0.87376
H         25.77576        35.66770        -0.58711
H         25.76099        37.56811        -0.61313
H         25.71158        39.98084        -0.43553
H         25.65687        41.95068        -0.39721
H         25.69950        44.41525        -0.25211
H         26.92038        46.53693        -0.06321
H         29.26835        26.33658        -3.68862
H         29.02160        47.77492        -0.39625
H         32.63326        23.75290         1.08334
H         30.86004        24.55918        -0.45981
H         32.85646        49.91012        -0.01639
H         30.77260        48.75482        -0.47813
H         34.33212        22.49292         1.45321
H         34.48583        50.79111         0.38065
H         36.24372        21.68413         2.84948
H         36.58544        51.97662         0.52507
H         41.22231        19.19095         2.00302
H         39.41022        20.36840         3.26219
H         40.39544        53.96036         1.35890
H         38.25425        52.82391         1.09903
H         42.78882        19.21346        -0.10200
H         42.91562        53.96909         1.18625
H         44.66121        20.49538        -0.87303
H         45.00962        52.82058         0.52248
H         48.52965        22.41311         0.35661
H         46.41376        21.31146        -0.16352
H         48.62344        50.81829        -0.05786
H         46.56517        51.97907        -0.59676
H         50.30586        23.41968         0.31584
H         50.19948        49.86544        -0.36591
H         52.29273        24.60867        -0.39810
H         52.28621        48.67390        -0.40732
H         55.96541        26.83067        -1.10269
H         53.91054        25.55484        -0.75834
H         54.87213        46.36069        -2.94676
H         53.62399        47.68067        -1.31129
H         57.18629        28.97284        -1.26386
H         57.29213        31.37961        -0.84290
H         57.22722        33.31652        -0.86386
H         57.17208        35.73643        -1.15346
H         57.03030        37.59757        -1.69071
H         56.90528        40.03482        -1.95225
H         56.05993        41.66376        -3.23363
H         55.80499        44.09590        -3.63990
