         244
 CSIRO Nanostructure Databank - Neutral Graphene Oxide Data Set
C          1.13508         2.02406        -0.04843
C          1.08520         3.37928        -0.27232
C          2.36056         1.32910         0.05784
C          2.33548         4.14599        -0.60921
C          1.12237         6.36930        -0.25595
C          1.12705         7.76401        -0.25928
C          2.32063         5.64431        -0.32287
C          2.32488         8.48727        -0.36998
C          1.19383        10.71638         0.05120
C          1.24944        12.05156         0.21248
C          2.30310         9.98189        -0.65190
C          2.44227        12.82113        -0.10858
C          1.20379        14.99811         0.02519
C          1.20434        16.37499         0.05211
C          2.41956        14.25609        -0.06282
C          2.42417        17.10910         0.01894
C          2.44540        18.53482         0.06266
C          3.58710         2.05290         0.08879
C          3.56690         3.44305        -0.10393
C          4.84055         1.38275         0.33490
C          4.75893         4.24753         0.31626
C          3.53422         6.36002        -0.34895
C          3.53655         7.77242        -0.41899
C          4.83979         5.59684        -0.40960
C          4.80553         8.51193        -0.67110
C          3.64433        10.68041        -0.46956
C          3.64517        12.13502        -0.35469
C          4.81541         9.99050        -0.60580
C          4.89066        12.84746        -0.39511
C          3.64873        14.96913        -0.12414
C          3.65136        16.39608        -0.05810
C          4.88614        14.26147        -0.23093
C          4.88648        17.11243        -0.06117
C          3.63578        19.22503         0.05023
C          4.88247        18.53217         0.00108
C          6.06018         2.06185         0.28560
C          6.06621         3.50513         0.17249
C          7.31121         1.36542         0.38725
C          7.25721         4.21234         0.03775
C          6.01901         6.42048         0.15219
C          6.10119         7.78871        -0.49293
C          7.30602         5.63565         0.00309
C          7.35223         8.53839        -0.24415
C          6.13902        10.68884        -0.87940
C          6.13336        12.15476        -0.51624
C          7.35768         9.96827        -0.32876
C          7.34602        12.83881        -0.37303
C          6.11996        14.97884        -0.19858
C          6.12566        16.40476        -0.10329
C          7.35031        14.27050        -0.24427
C          7.35651        17.11648        -0.04560
C          6.12494        19.22245         0.04459
C          7.33160        18.54358         0.03991
C          8.53315         2.01623         0.22514
C          8.53234         3.45362        -0.24716
C          9.77346         1.34470         0.31173
C          9.75477         4.22244         0.19771
C          8.52290         6.35082        -0.08063
C          8.52908         7.79790        -0.06220
C          9.77200         5.66981        -0.05228
C          9.79092         8.47859         0.04154
C          8.52546        10.66841        -0.07674
C          8.60212        12.10320        -0.19953
C          9.71948         9.93060         0.46672
C          9.80742        12.77508        -0.03166
C          8.57424        14.99329        -0.18805
C          8.59272        16.39112        -0.09079
C          9.86970        14.23866        -0.38302
C          9.86550        17.12076        -0.09017
C          8.60077        19.34451         0.20364
C          9.88198        18.57169        -0.02427
C         11.01728         2.01472         0.20674
C         11.05760         3.49283         0.27018
C         12.24161         1.36213         0.24518
C         12.30196         4.21440        -0.07414
C         11.00854         6.34740        -0.11275
C         10.98660         7.79317        -0.07760
C         12.24269         5.61841        -0.20277
C         12.25801         8.58974        -0.26430
C         11.01436        10.66911         0.33193
C         11.05829        12.07042         0.26866
C         12.24182         9.85447         0.59223
C         12.28127        12.75984         0.51340
C         11.01093        14.96344         0.28799
C         11.05418        16.41927         0.00549
C         12.28301        14.23015         0.57999
C         12.35774        17.06499        -0.10394
C         11.05941        19.26556         0.03346
C         12.36036        18.61932        -0.13609
C         13.49642         2.04004         0.08397
C         13.50650         3.46504        -0.26309
C         14.62841         1.27108         0.43118
C         14.72458         4.21937        -0.51139
C         13.47942         6.38226        -0.61501
C         13.53182         7.79197        -0.09824
C         14.75280         5.62743        -0.39212
C         14.72689         8.41643         0.15902
C         13.53004        10.61655         0.47741
C         13.50569        12.01568         1.02437
C         14.71740         9.82708         0.61588
C         14.80860        12.75361         0.74651
C         13.55107        14.99009         0.57886
C         13.58788        16.35450         0.31869
C         14.79742        14.24456         0.84585
C         14.82035        17.11067         0.32086
C         13.60125        19.28043         0.23878
C         14.80963        18.56685         0.27333
C         15.94748         1.58954        -0.00723
C         15.97068         3.59438        -0.80514
C         17.16938         1.41984         0.59992
C         17.21218         4.21522        -0.66668
C         15.98838         6.32975        -0.29141
C         16.00294         7.73745        -0.01096
C         17.22960         5.62648        -0.42245
C         17.23687         8.44227         0.04764
C         16.09239        10.61006         0.59179
C         15.97842        12.08730         0.50904
C         17.27288         9.88942         0.14302
C         17.18698        12.82552         0.04532
C         16.09116        15.00334         0.73323
C         16.05760        16.44751         0.41480
C         17.40221        14.25181         0.54042
C         17.28699        17.14599         0.32317
C         16.03715        19.26863         0.35679
C         17.28817        18.59729         0.35412
C         18.40305         1.98463         0.02229
C         18.44162         3.38469        -0.64069
C         19.67998         1.49643         0.62274
C         19.80793         4.09197        -0.66445
C         18.45445         6.35505        -0.41273
C         18.46426         7.73061        -0.16572
C         19.70669         5.62594        -0.76197
C         19.75736         8.47817         0.09346
C         18.46545        10.60357        -0.19313
C         18.42271        12.08024        -0.35421
C         19.69400         9.94654        -0.27278
C         19.70074        12.84775        -0.41632
C         18.38277        15.01595        -0.37846
C         18.51208        16.44508         0.10174
C         19.69641        14.26104        -0.42209
C         19.72251        17.11763         0.05163
C         18.50101        19.28264         0.36897
C         19.80385        18.55322         0.51847
C         20.72793         2.29400         0.86275
C         20.67954         3.77630         0.57630
C         22.06048         4.35999         0.32206
C         21.00528         6.34199        -0.66901
C         21.00856         7.80398        -0.41704
C         22.20575         5.53347        -0.31145
C         22.13525         8.54136        -0.64146
C         20.92834        10.67170        -0.44682
C         20.92133        12.13807        -0.48412
C         22.11788         9.96586        -0.57815
C         22.12355        12.87355        -0.56090
C         20.91042        14.98039        -0.48650
C         20.91822        16.44658        -0.39668
C         22.11919        14.25933        -0.55954
C         22.02305        17.20514        -0.74246
C         20.96061        19.29827        -0.08613
C         21.99797        18.63883        -0.65635
O         15.51370        10.08635         1.83312
O          5.55985         7.95160        -1.85370
O         10.34036         3.92230         1.50177
O         15.51590        14.72548         2.06194
O         11.29977        14.66372         1.67431
O         20.36364         6.09743        -1.99873
O         17.43816        12.54636        -1.37738
O         18.43400         2.16648        -1.42228
O         12.51129        17.80526        -1.35379
O         15.93129         2.27242        -1.25000
O          2.01294        10.09993        -2.08624
H          2.76397         9.69950        -2.57387
O          4.53126         4.48451         1.75654
H          4.53211         3.60729         2.19656
O          8.57025        20.51360        -0.62860
H          8.58487        20.22228        -1.56323
O          6.28946        10.63268        -2.34157
H          6.19854         9.67984        -2.58723
O         20.53389         3.59394        -1.79317
H         20.60246         4.32957        -2.44716
O          9.49062         9.86242         1.92827
H         10.32107         9.48314         2.31329
O          2.41285         4.08701        -2.09398
H          2.57779         3.15068        -2.33666
O         20.06941         4.44975         1.70594
H         20.60968         4.27270         2.50350
O         18.04366        14.14334         1.83079
H         17.32499        14.15314         2.50643
O         20.06612        18.50782         1.98371
H         19.33998        17.98478         2.38675
O          5.13487         5.26893        -1.78381
H          5.17538         6.12033        -2.28153
O         12.17927         9.42905         2.00178
H         12.44288        10.22785         2.53032
O         13.35977         6.52034        -2.10774
H         14.26660         6.65163        -2.46098
O          5.82675         6.74256         1.54981
H          5.53472         5.92233         2.01787
O         13.38184        11.89470         2.50056
H         14.22750        11.48300         2.80012
O         17.82822        15.11917        -1.70824
H         17.73615        14.20116        -2.06383
O         12.27359         9.02983        -1.65291
H         12.44021         8.22025        -2.19727
O          8.64885         3.40610        -1.70687
H          7.79765         3.07601        -2.06507
O         19.89243         8.45912         1.57028
H         20.66263         9.02349         1.79641
O         10.18639        14.29896        -1.81430
H          9.44779        13.87772        -2.30315
H          0.19723         1.45999         0.06402
H          0.10821         3.86491        -0.40333
H          2.36703         0.24188         0.21459
H          0.15595         5.84738        -0.23912
H          0.16382         8.29173        -0.24709
H          0.28925        10.16997         0.35265
H          0.39664        12.57457         0.66859
H          0.24307        14.46593         0.04604
H          0.25292        16.92423         0.10412
H          1.49078        19.07879         0.11189
H          4.83430         0.29042         0.46307
H          3.63979        20.32397         0.09077
H          7.29489         0.28821         0.61421
H          6.12875        20.32091         0.10258
H          9.77642         0.25376         0.46383
H          8.62238        19.72572         1.26425
H         12.26288         0.26837         0.36746
H         11.03738        20.34447         0.24959
H         14.46172         0.35266         1.01546
H         13.60165        20.36576         0.41925
H         17.23224         0.93158         1.58245
H         16.02074        20.36856         0.36970
H         19.73452         0.42609         0.87926
H         18.50498        20.38226         0.41051
H         21.64606         1.88045         1.31112
H         22.94617         3.78320         0.63346
H         23.20754         5.94899        -0.50209
H         23.07272         8.04632        -0.93337
H         23.06816        10.49065        -0.73442
H         23.09077        12.35697        -0.60634
H         23.07833        14.79366        -0.59251
H         22.92538        16.72678        -1.14738
H         20.97086        20.39484        -0.00032
H         22.85449        19.19873        -1.05968
