         486
 CSIRO Nanostructure Databank - Neutral Graphene Oxide Data Set
C          8.26836        19.04317        -0.27589
C          8.23731        20.48151        -0.70218
C          7.00029        21.25245        -0.31139
C          8.24297        23.35603        -0.49892
C          7.01422        22.60083        -0.27606
C          8.26468        24.73798        -0.59421
C         10.87448        15.02703        -0.27550
C         10.71820        16.27302         0.24104
C          9.37108        16.92684         0.42029
C         10.64586        19.14707         0.31886
C          9.41457        18.40894         0.10576
C         10.66600        20.51008         0.04534
C          9.49731        21.22611        -0.34758
C         10.71439        23.35321        -0.64610
C          9.48757        22.62872        -0.48439
C         10.71496        24.71367        -0.92942
C          9.48588        25.46069        -0.79887
C         10.71604        27.61748        -0.90161
C          9.52034        26.86440        -0.75699
C         10.75404        28.98585        -0.68472
C         13.37522        10.89684        -1.09234
C         13.38367        12.20689        -0.69587
C         12.19361        13.02013        -0.76784
C         13.25662        14.84478         0.51629
C         12.12394        14.28523        -0.21529
C         13.12901        16.21187         1.09851
C         11.84620        16.96130         0.91799
C         13.16928        19.12368         0.52922
C         11.84500        18.50207         1.01253
C         13.16875        20.45345         0.20615
C         11.92018        21.31457         0.35369
C         13.25488        23.26087        -0.75619
C         11.95918        22.55448        -0.56021
C         13.27436        24.71121        -1.15606
C         11.95741        25.42983        -1.32935
C         13.24570        27.64263        -1.11545
C         11.93740        26.95673        -1.50196
C         13.23515        29.00832        -0.91197
C         11.97927        29.73557        -0.74375
C         13.19030        31.87999        -0.37703
C         11.98174        31.11103        -0.54275
C         13.18707        33.29034        -0.30073
C         15.96130         8.30411        -2.12317
C         14.76437         8.91246        -1.97587
C         15.84120        10.75622        -0.71540
C         14.53358         9.93915        -0.88837
C         15.62816        11.85163         0.36850
C         14.65126        12.91273        -0.22155
C         15.60269        14.71309         1.32938
C         14.39405        14.09532         0.71921
C         15.67111        16.22092         1.39701
C         14.38336        17.06494         1.38472
C         15.63015        18.91781         0.23024
C         14.42720        18.36533         0.59818
C         15.67879        20.34486        -0.19944
C         14.46247        21.16882         0.08732
C         15.76833        23.30080        -0.56372
C         14.50139        22.63020        -0.23760
C         15.78530        24.80979        -0.46954
C         14.50240        25.50980        -0.91910
C         15.78478        27.63367        -1.04871
C         14.48841        26.88004        -1.04045
C         15.80403        29.10379        -0.71051
C         14.48479        29.79089        -0.75106
C         15.62796        31.86917        -0.02320
C         14.42724        31.18875        -0.29521
C         15.57790        33.25665         0.15032
C         14.38657        33.98700        -0.08253
C         15.69504        36.06687        -0.12987
C         14.48716        35.43395        -0.17381
C         18.37897         8.13521        -1.66905
C         17.17718         8.71813        -1.42055
C         18.31192        10.63474        -0.25951
C         17.03669         9.82310        -0.38544
C         18.25106        11.92748         0.48037
C         16.91884        12.49935         0.89133
C         18.17563        14.67258         1.79319
C         16.89090        13.92381         1.36040
C         18.19912        16.15146         1.40178
C         16.97895        16.79593         0.89225
C         18.09979        18.93986        -0.43247
C         16.90254        18.12940         0.12877
C         18.24690        20.40601        -0.07564
C         16.97322        21.09941        -0.41125
C         18.21072        23.23397        -0.53618
C         16.96700        22.58984        -0.46631
C         18.26994        24.63134        -0.97901
C         16.96391        25.35413        -1.27133
C         18.31475        27.57019        -0.64284
C         17.07388        26.88688        -1.11038
C         18.29214        29.01577        -0.38014
C         16.97778        29.65109         0.11378
C         18.19372        31.96429        -0.35498
C         16.97385        31.20609         0.18131
C         18.01837        33.05019         0.69891
C         16.77294        33.96520         0.72398
C         18.13749        35.98496         0.23935
C         16.91861        35.36857         0.19569
C         20.86060         7.84914        -0.91495
C         19.71395         8.76128        -1.32579
C         20.75930        10.52813         0.05804
C         19.61232         9.93332        -0.37082
C         20.75590        11.92003         0.58399
C         19.47155        12.45201         1.23953
C         20.72351        14.59518         1.78743
C         19.43867        13.99903         1.17105
C         20.73297        16.08173         1.82045
C         19.54358        16.78431         1.17266
C         20.65672        18.96494         1.00774
C         19.58089        18.27183         1.49130
C         20.65869        20.47613         0.89301
C         19.37301        21.08865         0.27087
C         20.70302        23.16588        -0.52741
C         19.40832        22.62159         0.15413
C         20.76412        24.66954        -0.36517
C         19.54807        25.40833        -0.76387
C         20.77506        27.53326        -0.37708
C         19.50617        26.87262        -0.57898
C         20.80326        29.02522        -0.67031
C         19.46218        29.71508        -0.42852
C         20.54245        31.63058         0.73613
C         19.47718        31.20185        -0.28065
C         20.61625        33.12890         0.97731
C         19.28336        33.85279         1.03091
C         20.55254        35.95162         0.56052
C         19.34258        35.28894         0.62593
C         23.28196         7.58732        -0.22298
C         22.01882         8.39950        -0.48592
C         23.34486        10.56589         0.11872
C         22.05532         9.88008        -0.27558
C         23.31527        11.84281         0.84054
C         22.06926        12.60250         0.91872
C         23.27575        14.64515         1.61644
C         22.03545        13.79903         1.86935
C         23.24029        16.01214         1.43555
C         22.02291        16.82567         1.64111
C         23.19405        18.81423         0.50660
C         21.96454        18.23837         1.12667
C         23.16603        20.23478         0.03023
C         21.81871        20.97432        -0.04666
C         23.25344        23.11744        -0.34748
C         21.94697        22.51181         0.10102
C         23.28831        24.63881        -0.52196
C         21.94877        25.34243        -0.27078
C         23.27384        27.50280        -0.21035
C         21.93859        26.79637        -0.23837
C         23.14365        28.88419         0.39007
C         21.95889        29.70745         0.03441
C         23.10724        31.72154         0.90427
C         21.88622        30.97823         0.49388
C         23.09281        33.14917         0.46479
C         21.83745        33.87800         0.66430
C         23.06006        36.00406         0.54723
C         21.83454        35.28483         0.61758
C         25.66999         7.83189        -0.95438
C         24.56393         8.38997        -0.42670
C         25.75720        10.63092        -0.14051
C         24.60745         9.72562         0.28379
C         25.74516        11.92671         0.60334
C         24.57575        12.38734         1.47715
C         25.72383        14.64892         1.50400
C         24.52705        13.91889         1.52418
C         25.70938        16.12725         1.56881
C         24.48625        16.69902         0.90931
C         25.65963        18.87717         0.52268
C         24.49482        18.20554         0.83659
C         25.65789        20.27549         0.13447
C         24.45242        20.96488        -0.00615
C         25.70810        23.11206        -0.04718
C         24.41266        22.40188        -0.22520
C         25.70925        24.53946         0.35457
C         24.35106        25.22675         0.50383
C         25.60640        27.34085         0.73190
C         24.42550        26.72053         0.38806
C         25.53311        28.68258         1.36023
C         24.32679        29.52460         1.05350
C         25.69292        31.78089         0.78458
C         24.42328        31.02767         1.06997
C         25.64931        33.17044         0.80824
C         24.39903        33.89986         0.48279
C         25.52319        36.08914         0.69226
C         24.34336        35.37658         0.59641
C         28.23360         7.77644        -0.91744
C         26.97412         8.54974        -1.26011
C         28.35069        10.59659        -0.56163
C         26.99887        10.00483        -0.78063
C         28.50647        11.98375        -0.41915
C         26.67821        12.88015         0.28338
C         28.21151        14.73534         1.00048
C         26.92412        14.06536         1.03145
C         28.26163        16.08296         1.29858
C         26.99128        16.85891         1.40503
C         28.26251        18.81687         0.33944
C         26.95310        18.14200         0.62183
C         28.31487        20.24114        -0.22573
C         26.93523        20.93288        -0.31849
C         28.23314        23.24021        -0.67913
C         26.93520        22.42637        -0.54399
C         28.17811        24.68145        -0.14121
C         26.95301        25.34653         0.21831
C         28.12835        27.51415         0.63075
C         26.89435        26.68691         0.57907
C         28.18259        28.95903         0.42899
C         27.06096        29.75086        -0.07090
C         28.16037        31.82346         0.51056
C         26.96668        31.13902         0.49626
C         28.21436        33.22639         0.92241
C         26.86864        33.95035         1.05241
C         27.90209        35.87290        -0.17524
C         26.88867        35.47914         0.89751
C         30.70626         7.67058        -0.73918
C         29.43860         8.38012        -0.66976
C         30.75245        10.46263        -0.15185
C         29.51058         9.81652        -0.42165
C         30.77906        11.81112         0.29463
C         29.60171        12.59245         0.21787
C         30.79065        14.63348         1.18495
C         29.48387        13.92484         0.89700
C         30.84884        16.12208         1.45946
C         29.50157        16.87174         1.49263
C         30.42529        19.17838         1.47644
C         29.43540        18.31168         1.10943
C         30.63082        20.51119         0.93633
C         29.35012        21.14088         0.47578
C         30.72372        23.19498        -0.21349
C         29.37003        22.56970         0.09623
C         30.66759        24.70667        -0.15999
C         29.38840        25.36476        -0.07583
C         30.62858        27.60134        -0.06627
C         29.44769        26.79008         0.32090
C         30.68842        28.92806         0.20681
C         29.47021        29.68503         0.74355
C         30.66868        31.88268         0.22665
C         29.40230        31.08122         0.06210
C         30.63542        33.25767         0.13291
C         29.45170        34.07575         0.62967
C         30.20999        35.83152        -1.02869
C         29.11694        35.26723        -0.25531
C         31.89310         8.33543        -0.73940
C         33.15722        10.47256        -0.63177
C         31.98724         9.76236        -0.47102
C         33.30306        11.83481        -0.08138
C         32.07629        12.45583         0.59039
C         33.34078        14.75132         0.49920
C         32.11298        13.93079         0.96814
C         33.15234        16.22157         0.36972
C         32.10947        16.82647         1.10870
C         33.24424        19.03457         0.89621
C         32.29804        18.16923         1.48151
C         33.16214        20.50686         1.41343
C         31.84339        21.15936         0.94304
C         33.13098        23.41685         0.56308
C         31.85079        22.62296         0.65500
C         33.11437        24.77498        -0.06917
C         31.83986        25.42595        -0.27614
C         33.03305        27.60554        -0.91594
C         31.71341        26.84722        -0.81399
C         32.97541        29.12818        -0.87032
C         32.03836        29.63633         0.24296
C         33.17171        31.95922        -0.34070
C         31.95431        31.17377         0.20700
C         32.91052        33.31220        -0.81687
C         31.74242        33.96758        -0.48160
C         31.45030        35.27811        -1.05073
C         34.32542        12.75726        -0.61862
C         35.25432        15.00683        -1.08420
C         34.30698        14.12013        -0.44072
C         35.22091        16.37578        -0.96325
C         34.17027        17.03119        -0.19375
C         35.10481        19.26135        -0.84157
C         34.12725        18.45592        -0.03685
C         35.67647        20.68448         1.22575
C         34.41838        21.30984         1.05774
C         35.63631        23.41806         0.45595
C         34.38470        22.66708         0.68160
C         35.60026        24.83428        -0.02458
C         34.28708        25.44663        -0.31299
C         35.59663        27.60536        -0.34770
C         34.31409        26.87016        -0.73113
C         35.54297        29.05890        -0.73920
C         34.35434        29.78320        -0.76372
C         34.35897        31.19125        -0.75644
C         36.27518        17.20830        -1.68159
C         37.63512        19.06190        -0.68338
C         36.42900        18.57878        -1.03010
C         38.00749        20.27624         0.14918
C         36.91358        21.23001         0.62427
C         37.76050        23.10189        -0.94866
C         36.90546        22.65938         0.22622
C         37.89102        24.60226        -1.01182
C         36.81177        25.43478        -0.67656
C         36.78593        26.82348        -0.85652
C         39.13846        21.05519        -0.50170
C         39.05527        22.31714        -0.95068
O         32.91612        31.77699         1.11394
O         21.38867        12.83387        -0.37004
O         23.68581        31.56846         2.23235
O         27.68125        17.90021        -0.63337
O         12.68280        22.38871        -1.80734
O         16.23314        20.53044        -1.54321
O         18.38025        11.92154        -0.96487
O         25.87040        23.48657         1.38795
O         37.57334        22.27839         1.46036
O         22.24212        17.95130         2.56650
O         26.33019        29.02045         2.23112
O         27.47659        12.78107        -0.86726
O         31.39435        18.71023         2.39107
O         23.80020        33.42206        -0.78861
O         11.82461        21.74627         1.67848
O         23.71635        24.97194        -1.79738
O         30.23357        16.50645         2.71578
O         30.11904        13.87082         2.24061
O         19.16354        24.93898        -2.11481
O         26.02439        10.76383        -1.56826
O         26.71058        21.52566        -1.64959
O         33.08376        11.77920         1.39036
O         32.27300        23.39097         1.79039
O         33.81313        27.15385        -2.08732
O         27.61343        33.48626         2.22337
O         28.93821        22.18402         1.43131
O         29.04699        27.06071         1.69973
O         16.79701        16.87532        -0.61241
O         23.13403        19.09529        -0.92739
O         12.66548        24.85668        -2.48237
O         12.16651        16.30331         2.20240
O         23.25547        28.93285         1.85923
O         14.56989        22.17430         1.17271
O         30.99925        22.84143        -1.54752
O         18.73246        18.49954        -1.36815
O         26.22522        29.32994        -0.89179
O         16.77545        12.77446         2.31039
O         26.29158        16.83385         2.69683
O         19.98420        33.53813         2.25637
O         33.93174        14.58494         1.97727
O         34.81592        20.31192        -1.39195
O         15.43765        29.82033        -1.91580
O         17.46511        31.83586         1.53804
O         22.84386        10.59897        -1.27959
O         20.53058        15.34423         3.04078
O         16.52576        27.49950        -2.32061
O         15.27984        13.61478        -1.25777
O         35.80736        24.54340         1.41257
O         15.59964        15.43427         2.63119
O         19.07621        31.97595        -1.48986
O         20.61475        22.90678        -1.92784
H         21.39581        23.29868        -2.37165
O         19.93323        16.70667        -0.23941
H         19.13076        16.56374        -0.79520
O         11.71517        18.84105         2.40801
H         12.52974        18.50452         2.85541
O         16.11889        11.32234        -1.99355
H         15.94364        12.30984        -1.98974
O         14.96433        11.26757         1.50038
H         15.33611        11.70266         2.30804
O         14.20999         9.13554         0.28890
H         13.99506         9.76592         1.01719
O         23.28240         6.39799        -1.00272
H         23.19778         6.64594        -1.94612
O         18.54179        18.88020         2.13849
H         17.94870        18.19713         2.51900
O         19.30159        14.33763        -0.21198
H         20.00830        13.89894        -0.74167
O         23.84898        24.98102         1.82217
H         24.43690        24.30100         2.23330
O         31.19418        26.72157        -2.16551
H         31.92985        26.37609        -2.71911
O         38.51211        19.68060         1.39443
H         38.85285        20.42646         1.93909
O          8.21483        20.44288        -2.18514
H          9.07250        20.07241        -2.48453
O         20.13241         9.34112        -2.60705
H         20.88681         9.94927        -2.44656
O         29.64213        29.87123         2.16694
H         29.37666        29.02672         2.59865
O         27.38844        36.06881         2.12171
H         28.25581        35.63147         2.31738
O         32.64576        29.24186         1.48613
H         32.16589        29.68733         2.21671
O         23.69917        27.63403        -1.58927
H         23.74884        26.69433        -1.94949
O         18.21660        14.53966         3.23086
H         17.32287        14.78899         3.56201
O         24.76488         9.38602         1.68062
H         24.78601        10.21329         2.23405
O         36.99363        22.67369        -2.12306
H         37.36616        23.11937        -2.91265
O         35.66903        27.62119         1.11504
H         35.86839        26.71239         1.43234
O         19.45130        11.99995         2.59515
H         18.72309        12.48106         3.05976
O         28.83842        20.10162        -1.55952
H         28.33150        20.72186        -2.14106
O         32.72026        13.92864         2.43629
H         32.22631        14.58341         3.00131
O         11.79624        27.20781        -2.92921
H         12.35288        26.53465        -3.38730
O         37.50724        16.50601        -1.75314
H         37.78316        16.25230        -0.84897
O         16.00928        25.13140         0.92855
H         15.46528        24.53460         1.48699
O         29.32769        30.85918        -1.37360
H         28.50526        30.36491        -1.58441
O         28.53382        23.29472        -2.07102
H         29.53198        23.20106        -2.18455
O         24.69836        11.86641         2.85091
H         23.91550        12.21296         3.34635
O         33.12157        20.44976         2.84959
H         34.01007        20.19853         3.17666
O         22.14751        13.23866         3.20262
H         21.71833        13.88282         3.81344
O         24.59722        16.27737        -0.49076
H         24.00083        16.83689        -1.03510
O         21.09609        29.16069        -2.09078
H         20.42729        28.64948        -2.59322
O          8.98798        16.75301         1.79669
H          9.70856        17.11446         2.35722
O         27.02396         8.61646        -2.72123
H         26.42586         9.35582        -2.97931
O         16.83133         9.20534         0.90010
H         15.91087         8.83283         0.88872
O         21.31834        20.72014        -1.36597
H         21.57025        19.80215        -1.61919
O         21.95453        22.92779         1.49259
H         22.66768        22.45650         1.97182
O         20.06385        30.99880         1.95519
H         19.94706        31.70786         2.63234
O         29.88761        34.66052         1.89344
H         29.97606        33.93287         2.54607
O         35.80244        19.51174         1.88703
H         36.77092        19.27929         1.91882
O         19.31127        23.19279         1.48410
H         20.16119        22.98321         1.95096
O         32.40301        29.57175        -2.11638
H         32.74621        28.98765        -2.82658
O         14.25301        17.57138         2.74544
H         14.19645        16.78291         3.33258
O         16.48668        34.15430         2.14155
H         16.52711        33.25887         2.55060
O         16.62514        25.04637        -2.63002
H         17.40002        25.27062        -3.19075
O         16.76826        29.15798         1.45214
H         17.40347        29.62030         2.04231
O         20.78800        20.98385         2.24051
H         20.12600        20.51042         2.78909
H          7.34221        18.45847        -0.39150
H          6.06612        20.69584        -0.14445
H          6.09381        23.16387        -0.05866
H          7.32494        25.30592        -0.52098
H         10.01002        14.52138        -0.73469
H          8.59561        16.42165        -0.20701
H          8.58885        27.40566        -0.52802
H          9.83654        29.51208        -0.37818
H         12.42519        10.46234        -1.44902
H         11.29849        12.59873        -1.25275
H         11.01892        31.63829        -0.46407
H         12.24691        33.84289        -0.44300
H         16.07574         7.51352        -2.88238
H         13.90553         8.58672        -2.58286
H         15.75591        37.14915        -0.31888
H         13.57271        36.00745        -0.38478
H         18.42359         7.31400        -2.40368
H         18.23063        37.04133        -0.05571
H         20.80534         6.76685        -1.11122
H         20.54711        37.02568         0.31992
H         23.26915         7.27105         0.85754
H         23.02045        37.10399         0.54271
H         25.58855         6.81169        -1.36622
H         25.47728        37.18818         0.74877
H         28.21546         6.69396        -1.12203
H         27.71911        36.79256        -0.75328
H         30.68486         6.58377        -0.90649
H         30.02382        36.77872        -1.55684
H         32.83067         7.78299        -0.89814
H         34.05341         9.98368        -1.04066
H         33.63249        33.78573        -1.49854
H         32.25783        35.77834        -1.60608
H         35.06698        12.33000        -1.31067
H         36.04019        14.54898        -1.70277
H         36.49145        29.62086        -0.70700
H         35.31140        31.73249        -0.88264
H         35.93190        17.37061        -2.74015
H         38.50640        18.42148        -0.91191
H         38.78293        25.03872        -1.48576
H         37.65899        27.34392        -1.27706
H         40.09662        20.51621        -0.57218
H         39.94607        22.78751        -1.39672
