         404
 CSIRO Nanostructure Databank - Neutral Graphene Oxide Data Set
C          1.50824         1.66492         1.89915
C          1.48578         3.04504         2.19261
C          2.61284         1.12199         1.28178
C          2.54089         3.86050         1.80677
C          1.19492         6.79010         1.02989
C          1.09404         7.71568        -0.01751
C          2.42486         6.15530         1.23882
C          2.27223         8.15277        -0.61640
C          1.21085        11.01940        -1.71095
C          1.21320        12.37680        -1.42688
C          2.35196        10.25673        -1.45786
C          2.38814        12.98985        -0.96557
C          1.19687        15.19125        -0.77877
C          1.22088        16.57910        -0.71580
C          2.38715        14.43158        -0.75081
C          2.44356        17.27634        -0.65518
C          2.49135        18.71041        -0.70281
C          3.73287         1.93510         0.93269
C          3.70069         3.36108         1.13774
C          4.88635         1.32046         0.40988
C          4.82545         4.15733         0.72472
C          3.59708         6.51762         0.54780
C          3.56097         7.73878        -0.20731
C          4.74366         5.60193         0.34672
C          4.74557         8.52576        -0.51895
C          3.56809        10.78126        -0.94300
C          3.58261        12.21390        -0.79422
C          4.75891         9.95936        -0.67121
C          4.81670        12.89216        -0.50882
C          3.62261        15.10444        -0.56513
C          3.65906        16.53349        -0.56207
C          4.84000        14.35848        -0.45501
C          4.90156        17.22860        -0.51037
C          3.68564        19.37561        -0.70432
C          4.92854        18.65868        -0.61673
C          6.05776         2.06436         0.22030
C          6.02368         3.49348         0.36565
C          7.26766         1.42152        -0.16529
C          7.28291         4.20080         0.24596
C          6.01434         6.29830        -0.14321
C          6.01385         7.78381        -0.43011
C          7.28446         5.61704         0.15594
C          7.32375         8.54604        -0.17027
C          5.98997        10.68810        -0.40837
C          5.98086        12.12339        -0.34742
C          7.23249        10.02176        -0.09573
C          7.20965        12.87677         0.12072
C          6.04686        15.07308        -0.37319
C          6.11954        16.50344        -0.40153
C          7.28460        14.27939        -0.42700
C          7.36988        17.21449        -0.26888
C          6.15802        19.32088        -0.67018
C          7.39435        18.65239        -0.46974
C          8.51292         2.04915        -0.05271
C          8.51176         3.46116         0.32135
C          9.67199         1.28262        -0.47271
C          9.69621         4.21736         0.59957
C          8.47140         6.37720         0.38740
C          8.44211         7.80440         0.42919
C          9.66046         5.62338         0.66005
C          9.64617         8.56575         0.82044
C          8.43413        10.73345         0.10820
C          8.50544        12.13711         0.01103
C          9.65574        10.09518         0.72693
C          9.74249        12.83608         0.09365
C          8.58893        15.00229        -0.34485
C          8.56964        16.45311        -0.10040
C          9.80501        14.25062         0.02429
C          9.77042        16.99851         0.35550
C          8.59034        19.42123        -0.67297
C          9.83494        19.06543        -0.12924
C         10.95454         1.50001         0.04302
C         10.96880         3.54677         0.77349
C         12.24833         1.16357        -0.39264
C         12.20200         4.09291         0.44216
C         10.93820         6.31122         0.85950
C         10.94027         7.80898         0.84530
C         12.22098         5.55885         0.61404
C         12.16861         8.46369         0.30411
C         10.95398        10.71726         0.23796
C         10.99495        12.10264         0.12290
C         12.15971         9.91725        -0.02608
C         12.24032        12.82472         0.06767
C         11.02948        14.93969         0.13989
C         11.04955        16.37526         0.20482
C         12.26600        14.21974         0.17638
C         12.25631        17.11905         0.13563
C         11.15509        19.35360        -0.51109
C         12.29370        18.55358        -0.14467
C         13.43256         1.90120        -0.01949
C         13.42953         3.33394         0.26272
C         14.67940         1.24918        -0.13930
C         14.66801         4.03058         0.20634
C         13.41371         6.30363         0.16139
C         13.45951         7.75540         0.36540
C         14.68279         5.50833         0.03997
C         14.66953         8.43204         0.25637
C         13.49223        10.59946        -0.15822
C         13.51556        12.11003        -0.08760
C         14.71779         9.86685         0.18474
C         14.76211        12.78628         0.33133
C         13.50571        14.95500         0.23449
C         13.50453        16.38143         0.17017
C         14.73745        14.24098         0.36588
C         14.75418        17.07188         0.14960
C         13.55328        19.18023        -0.24568
C         14.77795        18.50351        -0.02478
C         15.91896         1.92011        -0.00826
C         15.91455         3.35199         0.09885
C         17.16635         1.24448        -0.00065
C         17.16777         4.04607         0.08036
C         15.91925         6.28036         0.20606
C         15.89805         7.65834         0.24879
C         17.16525         5.50093         0.37011
C         17.14689         8.44080         0.12721
C         15.93651        10.58886         0.38027
C         15.91275        12.04300         0.54358
C         17.14279         9.87596         0.44177
C         17.15757        12.74601         0.93985
C         15.94720        14.95614         0.42803
C         15.98092        16.36844         0.29784
C         17.18501        14.23792         0.77139
C         17.24089        17.08104         0.34405
C         16.00828        19.18792        -0.02364
C         17.24270        18.51066         0.16627
C         18.40465         1.91295        -0.07568
C         18.39040         3.37371        -0.12920
C         19.60532         1.12123         0.09363
C         19.61828         4.16373        -0.26300
C         18.45824         6.25488         0.37465
C         18.44233         7.71728         0.08929
C         19.68766         5.54858         0.00811
C         19.71740         8.44534         0.25229
C         18.42910        10.50212         0.80572
C         18.45772        11.99071         1.02307
C         19.70738         9.81952         0.49989
C         19.75243        12.69599         0.88079
C         18.48295        14.92465         0.51665
C         18.47077        16.40796         0.51662
C         19.76020        14.18006         0.69581
C         19.70892        17.09205         0.48093
C         18.47463        19.19771         0.14046
C         19.70787        18.51840         0.28109
C         20.85852         1.49563        -0.42408
C         20.81563         3.59784        -0.75516
C         22.18257         1.16764        -0.08667
C         22.09257         4.18623        -0.59099
C         20.88849         6.29679        -0.15657
C         20.91879         7.73177         0.03537
C         22.10953         5.61429        -0.38776
C         22.13640         8.46605        -0.05365
C         20.92664        10.55000         0.48330
C         20.92034        11.99102         0.71181
C         22.10968         9.88013         0.10043
C         22.22737        12.70307         0.75751
C         20.96767        14.98011         1.17319
C         20.96555        16.40114         0.63806
C         22.27396        14.19839         0.96217
C         22.16216        17.08781         0.54471
C         20.94327        19.20762         0.24333
C         22.16943        18.52302         0.36726
C         23.33153         1.96642        -0.44675
C         23.27582         3.38835        -0.65790
C         24.61474         1.33546        -0.34829
C         24.54320         4.14067        -0.81553
C         23.32712         6.34878        -0.38522
C         23.36901         7.74452        -0.25798
C         24.57573         5.58286        -0.40591
C         24.62957         8.44565        -0.40541
C         23.32641        10.65936        -0.20260
C         23.41849        12.06509         0.20355
C         24.60596         9.92688        -0.48539
C         24.61570        12.79579        -0.00959
C         23.48556        14.92499         0.53243
C         23.46930        16.39545         0.87979
C         24.61801        14.25732         0.12546
C         24.68316        17.12186         0.38233
C         23.39878        19.22400         0.39556
C         24.65189        18.54912         0.37437
C         25.85574         1.98495        -0.50294
C         25.86389         3.42726        -0.82091
C         27.09471         1.35030        -0.31585
C         27.12307         4.20228        -0.66955
C         25.88314         6.33713        -0.48559
C         25.83024         7.80210        -0.60315
C         27.11021         5.58089        -0.80093
C         27.02111         8.58290        -1.15589
C         25.87843        10.64100        -0.07687
C         25.81278        12.12385        -0.30824
C         27.11663         9.99007        -0.61508
C         26.99066        12.83411        -0.91308
C         25.86665        14.97553        -0.15893
C         25.86198        16.43037         0.03736
C         26.99418        14.31548        -0.60159
C         27.05448        17.16859        -0.11924
C         25.86931        19.26349         0.29408
C         27.08361        18.57503         0.11971
C         28.33662         2.06284        -0.34417
C         28.35316         3.48885        -0.51197
C         29.56362         1.39135        -0.14695
C         29.57714         4.21874        -0.40183
C         28.37038         6.32014        -0.95267
C         28.35715         7.82615        -1.07796
C         29.60525         5.63494        -0.55605
C         29.58982         8.54986        -0.69079
C         28.32000        10.69495        -0.63491
C         28.32456        12.14188        -0.65102
C         29.57271         9.96419        -0.62156
C         29.53625        12.82667        -0.78443
C         28.22854        15.04664        -0.96898
C         28.27398        16.51617        -0.61795
C         29.54725        14.29121        -1.24185
C         29.56336        17.16604        -0.33581
C         28.34434        19.24876         0.15254
C         29.55085        18.54969         0.03509
C         30.79184         2.08871        -0.08581
C         30.79688         3.51946        -0.18376
C         32.03227         1.40685         0.06904
C         32.01735         4.24861        -0.09403
C         30.79780         6.37913        -0.41614
C         30.78949         7.82461        -0.48057
C         32.01771         5.67615        -0.16721
C         32.01759         8.54435        -0.27536
C         30.79677        10.69032        -0.50604
C         30.76724        12.10915        -0.68571
C         32.02754         9.97816        -0.36238
C         32.04881        12.79087        -0.86996
C         30.77434        15.06592        -0.73920
C         30.76475        16.42851        -0.39242
C         32.04330        14.35131        -0.84859
C         32.03396        17.04632         0.20606
C         30.78702        19.23270         0.29709
C         32.02510        18.62227         0.31529
C         33.24314         2.10178         0.10773
C         33.24358         3.53839         0.04214
C         34.50159         1.41013         0.22038
C         34.46478         4.26542         0.10574
C         33.23747         6.40043         0.01683
C         33.21322         7.82719        -0.00921
C         34.45314         5.66676         0.15928
C         34.45709         8.58167         0.22953
C         33.27875        10.70151        -0.31021
C         33.30308        12.10980        -0.50976
C         34.49889        10.01716        -0.09688
C         34.52023        12.82720        -0.42460
C         33.31293        14.99528        -0.47655
C         33.29831        16.40084        -0.36004
C         34.53023        14.27564        -0.44902
C         34.53077        17.04323        -0.45025
C         33.14866        19.36500         0.80717
C         34.46818        19.06488         0.41108
C         35.70344         2.08113         0.14132
C         35.72831         3.53508         0.02119
C         36.97579         1.40337         0.23734
C         36.90251         4.18718        -0.27446
C         35.78673         6.32435         0.44357
C         35.76483         7.84205         0.35526
C         36.88876         5.66703        -0.36602
C         37.01363         8.56757         0.03445
C         35.73640        10.70653        -0.07160
C         35.74746        12.12813        -0.20894
C         36.99043         9.99524         0.01627
C         36.98746        12.84034        -0.11500
C         35.75672        14.97731        -0.22745
C         35.76477        16.40272        -0.20065
C         36.99019        14.27328        -0.09220
C         36.94266        17.14846         0.16815
C         35.69712        19.25050         1.02814
C         36.90081        18.52358         0.65510
C         38.15181         2.03467        -0.08184
C         38.09810         3.38797        -0.76565
C         39.42140         1.39168         0.12256
C         39.42713         4.16270        -0.72942
C         38.15599         6.43700        -0.58516
C         38.20514         7.87214        -0.19773
C         39.45254         5.69048        -0.72302
C         39.45377         8.56229        -0.19390
C         38.21823        10.70295        -0.04780
C         38.21678        12.13787        -0.04320
C         39.45754         9.98758        -0.07719
C         39.45198        12.85908         0.03099
C         38.19827        14.99975         0.06179
C         38.17167        16.43158         0.23073
C         39.44320        14.28850         0.11766
C         39.39823        17.11721         0.50733
C         38.10826        19.14674         0.98361
C         39.36367        18.50780         0.83136
C         40.60335         2.07413         0.03625
C         40.65169         3.47708        -0.27156
C         41.81680         4.20800        -0.09961
C         40.69689         6.38499        -0.32713
C         40.68945         7.83697        -0.22657
C         41.84091         5.62506        -0.13967
C         41.88876         8.56907        -0.16025
C         40.69453        10.69809        -0.03827
C         40.68922        12.14878         0.04902
C         41.89216         9.95810        -0.08074
C         41.88709        12.88514         0.14418
C         40.67144        14.99628         0.26609
C         40.65172        16.43653         0.47787
C         41.87732        14.26831         0.25903
C         41.82829        17.17379         0.69721
C         40.57299        19.20937         1.06725
C         41.78699        18.54667         0.97848
O         13.62412        11.40414        -1.38101
O         34.53953        18.38843        -0.82150
O         35.09664         8.35397         1.56473
O         28.53827         7.00687        -2.28376
O          2.47494         5.18395         2.25154
O         39.61179         4.93409        -1.96416
O         25.20082         3.81520        -2.08864
O          6.94961         8.06731        -1.51561
O         13.90148         5.90276        -1.15984
O         23.86189        10.45870        -1.59865
O         28.04337        16.05537        -2.02584
O         18.43604        11.07650         2.17507
O         20.75024         2.42847        -1.49208
O         11.79203         5.88537         1.98899
O          9.74011        18.22477         1.01053
O          8.04444        14.51583        -1.64474
O         32.01170        16.68692         1.54758
O         17.05024        13.63373         2.11019
O         11.90669         8.91388        -1.09517
O         19.25916        14.45134        -0.66278
O         17.81237         8.08708        -1.18857
O          5.14102         5.62903        -1.09095
O         22.50726        13.30117         2.10839
O         10.33965         8.23472         2.10760
O         25.35201         5.83005         0.81846
O         37.19021         6.21169        -1.68367
O          2.22038         8.91139        -1.79509
O         17.86227         5.84738         1.64639
O         32.16304        13.58107        -2.08707
O         10.92651         2.24459         1.24623
O         37.82204         3.09946        -2.16492
H         38.10161         3.90035        -2.66891
O         23.55131        16.43843         2.34975
H         22.70602        16.06609         2.69913
O          7.01836        13.07396         1.57162
H          7.28103        12.24256         2.02338
O          9.53023        10.58561         2.11454
H         10.00403         9.92981         2.68286
O         26.78380        12.75155        -2.36723
H         26.75504        11.80077        -2.61254
O         36.13333         5.99879         1.82218
H         35.62974         6.63050         2.38687
O         26.72381         8.77375        -2.57402
H         27.20534         8.06000        -3.05974
O         29.67538        14.19714        -2.68178
H         29.23378        14.99338        -3.05915
O         25.93026        10.43377         1.39051
H         26.70526        10.92388         1.73869
O         20.82129        15.14490         2.61165
H         21.15426        14.31137         3.02523
H          0.65929         1.03063         2.18769
H          0.63953         3.48448         2.73589
H          2.66727         0.04270         1.08228
H          0.30841         6.45940         1.58501
H          0.12076         8.08955        -0.35848
H          0.32140        10.52767        -2.12405
H          0.30414        12.96178        -1.61044
H          0.22161        14.69296        -0.85633
H          0.27809        17.14384        -0.75090
H          1.54440        19.26632        -0.76584
H          4.89245         0.23438         0.23768
H          3.71347        20.47313        -0.76765
H          7.22702         0.35694        -0.44080
H          6.16962        20.41045        -0.82298
H          9.50381         0.48790        -1.21543
H          8.51787        20.31045        -1.31785
H         12.37816         0.32682        -1.09627
H         11.34659        20.23490        -1.14281
H         14.68791         0.16692        -0.33824
H         13.58609        20.25807        -0.46619
H         17.16493         0.14435         0.02680
H         16.01620        20.27754        -0.17630
H         19.51142         0.17988         0.65677
H         18.47885        20.28693        -0.01414
H         22.36945         0.26758         0.51850
H         20.94693        20.30155         0.12737
H         24.62895         0.26176        -0.10490
H         23.38689        20.32306         0.34969
H         27.11749         0.27046        -0.10441
H         25.86596        20.36056         0.36527
H         29.56438         0.29667        -0.03571
H         28.36501        20.32301         0.38786
H         32.03407         0.30861         0.13419
H         30.73279        20.32678         0.42559
H         34.49189         0.31385         0.31390
H         32.97994        20.08308         1.62697
H         36.99485         0.37069         0.61934
H         35.78080        19.95276         1.87187
H         39.42220         0.33500         0.42949
H         38.08880        20.18128         1.35822
H         41.55019         1.56490         0.26871
H         42.73887         3.67839         0.18159
H         42.79393         6.11898         0.09413
H         42.85390         8.04638        -0.19402
H         42.86205        10.47178        -0.05456
H         42.85619        12.36929         0.14944
H         42.83889        14.78975         0.35352
H         42.80799        16.67925         0.66043
H         40.53602        20.27975         1.31482
H         42.72603        19.09151         1.14850
