         635
 CSIRO Nanostructure Databank - Neutral Graphene Oxide Data Set
C         23.19697        69.58698         2.41012
C         23.17609        70.99107         2.57939
C         21.95941        71.70619         2.76626
C         23.16578        73.81062         2.89437
C         21.97044        73.09113         2.92405
C         25.63829        65.39136         1.49164
C         25.63896        66.77028         1.79844
C         24.43657        67.47167         2.06391
C         25.64231        69.60941         2.28731
C         24.41606        68.88230         2.26549
C         25.63925        71.02184         2.37108
C         24.40658        71.72058         2.54431
C         25.63122        73.85239         2.64730
C         24.40707        73.14544         2.69660
C         27.91581        61.31306         0.03634
C         27.98730        62.64168         0.44695
C         26.82217        63.32224         0.88544
C         28.08351        65.42382         1.16764
C         26.83452        64.70493         1.17936
C         28.08735        66.78952         1.55896
C         26.90168        67.45724         1.85658
C         28.07421        69.67870         1.77581
C         26.94903        68.87669         2.36124
C         28.06720        71.07507         1.87600
C         26.86027        71.76234         2.25170
C         28.07818        73.89684         2.27676
C         26.85738        73.18631         2.39366
C         30.29102        57.05603        -0.85507
C         30.29931        58.47643        -0.75393
C         29.09747        59.18610        -0.65651
C         30.39619        61.24932        -0.26249
C         29.04333        60.69004        -0.74128
C         30.41147        62.74590        -0.06530
C         29.24723        63.38739         0.37014
C         30.53879        65.46134         0.74523
C         29.29571        64.76366         0.77005
C         30.60384        66.85695         1.14478
C         29.38966        67.52867         1.74598
C         30.52961        69.73925         1.37982
C         29.25846        68.95878         1.20159
C         30.48685        71.12141         1.40366
C         29.26298        71.83641         1.62081
C         30.50827        73.96229         1.91874
C         29.28820        73.25152         1.90243
C         32.74147        52.79548        -1.40233
C         32.70458        54.20276        -1.30886
C         31.49268        54.92052        -1.18594
C         32.73988        57.04351        -1.08088
C         31.48394        56.32974        -1.05457
C         32.75571        58.48051        -1.03796
C         31.57164        59.17238        -0.88050
C         32.85778        61.37808        -0.83839
C         31.54765        60.66855        -1.08764
C         32.82968        62.75789        -0.56002
C         31.64980        63.43646        -0.11834
C         32.97977        65.50406         0.27830
C         31.72056        64.81092         0.28547
C         33.08684        66.82451         0.99166
C         31.77453        67.56457         1.08056
C         33.03571        69.77856         1.08740
C         31.82919        68.99840         1.57201
C         33.00938        71.14953         1.02410
C         31.72485        71.86995         1.11174
C         33.05298        74.00756         1.58075
C         31.73451        73.39565         1.38452
C         35.17402        48.41826        -1.32554
C         35.17667        49.91521        -1.08257
C         33.97120        50.68141        -1.39040
C         35.22009        52.81877        -1.30887
C         33.96858        52.08087        -1.35243
C         35.19842        54.21603        -1.33973
C         33.95458        54.92508        -1.27011
C         35.20913        57.06205        -0.77607
C         33.94956        56.32682        -1.15357
C         35.32620        58.44892        -1.47298
C         33.96802        59.24120        -1.56338
C         35.29350        61.36688        -1.14626
C         34.05975        60.67846        -1.08320
C         35.30747        62.82899        -1.20208
C         34.01285        63.57469        -0.84526
C         35.38365        65.61492        -0.36313
C         34.11943        64.92874        -0.27952
C         35.46308        67.00215         0.07906
C         34.26956        67.66910         0.57459
C         35.50644        69.79555         0.84588
C         34.24979        69.03650         0.79636
C         35.50255        71.26731         0.77647
C         34.19963        71.99129         0.57631
C         35.48548        74.02985         1.42554
C         34.23012        73.37564         1.22763
C         37.64364        44.33804         0.05208
C         37.66091        45.69559        -0.32830
C         36.46365        46.40250        -0.63329
C         37.71410        48.45982        -1.03115
C         36.48133        47.75564        -0.95563
C         37.75804        49.89594        -1.25164
C         36.49598        50.65593        -1.06623
C         37.66776        52.75696        -1.61006
C         36.49178        52.10894        -1.34474
C         37.67911        54.24233        -1.87105
C         36.45072        54.96403        -1.36376
C         37.77944        57.00492        -0.75359
C         36.47934        56.29214        -1.06600
C         37.79387        58.49006        -1.06475
C         36.49739        59.22886        -0.82082
C         37.74961        61.37889        -1.30832
C         36.53716        60.68700        -1.19901
C         37.78176        62.80659        -1.21564
C         36.58062        63.53305        -1.03317
C         37.80415        65.66981        -1.02540
C         36.55056        64.93312        -0.78302
C         37.84925        67.15559        -0.68264
C         36.66525        67.70043        -0.00237
C         37.97689        69.89242         0.18232
C         36.79130        69.03973         0.57277
C         37.92887        71.20594         0.95239
C         36.68868        71.95350         0.91510
C         37.96737        74.02315         1.49724
C         36.72153        73.37876         1.25625
C         40.02530        40.22052         1.38273
C         40.03365        41.59906         1.05018
C         38.83211        42.28995         0.75238
C         40.09487        44.35099         0.28832
C         38.83965        43.64681         0.36289
C         40.12579        45.71377        -0.12332
C         38.91024        46.39051        -0.43047
C         40.19184        48.41806        -1.00904
C         38.94165        47.75439        -0.83715
C         40.21341        49.76429        -1.69034
C         38.93392        50.55234        -1.50947
C         40.19015        52.75793        -1.60119
C         38.93368        52.00379        -1.95487
C         40.20358        54.13794        -1.51648
C         38.97560        54.91402        -1.46629
C         40.24411        57.01550        -1.29396
C         39.00446        56.27239        -1.24145
C         40.23448        58.42678        -1.28298
C         38.97100        59.15222        -1.25493
C         40.29331        61.32458        -1.24085
C         39.01528        60.61638        -1.65693
C         40.25079        62.75157        -1.16903
C         39.05956        63.48920        -1.20233
C         40.26816        65.66185        -1.17155
C         39.08246        64.94063        -1.11937
C         40.34081        67.07673        -0.88530
C         39.17220        67.79452        -0.49466
C         40.54696        69.71038         0.03579
C         39.27297        69.09140         0.05075
C         40.84104        70.91444         0.78158
C         39.00548        71.83881         1.50537
C         40.49014        73.80453         1.59490
C         39.17386        73.27493         1.57089
C         42.41075        36.07114         2.59281
C         42.41683        37.42276         2.17903
C         41.21414        38.13824         1.96081
C         42.48915        40.18943         1.47391
C         41.22300        39.50361         1.60170
C         42.50697        41.60197         1.23900
C         41.27925        42.30752         1.01331
C         42.52419        44.42266         0.63832
C         41.30049        43.69629         0.65669
C         42.56600        45.74870         0.17527
C         41.36523        46.41202        -0.20852
C         42.65349        48.48442        -0.71142
C         41.39379        47.77734        -0.65794
C         42.63748        49.90224        -1.03774
C         41.46019        50.54798        -1.35939
C         42.61410        52.72510        -1.02916
C         41.49571        51.99808        -1.77985
C         42.67986        54.18243        -1.38528
C         41.46593        54.87280        -1.43916
C         42.70594        57.00809        -1.42242
C         41.46953        56.29991        -1.42975
C         42.67227        58.43116        -1.32131
C         41.47009        59.14919        -1.28230
C         42.78219        61.27115        -0.94862
C         41.49184        60.60544        -1.16146
C         42.80141        62.75985        -0.87944
C         41.51630        63.51198        -1.01933
C         42.79826        65.63417        -1.40635
C         41.49918        64.90860        -1.62421
C         42.83445        67.00400        -1.16023
C         41.59758        67.75540        -0.94070
C         42.87479        69.96642        -0.78477
C         41.65190        69.12864        -0.61418
C         42.88902        71.52902        -0.46614
C         41.78306        71.85451         0.52191
C         42.95419        73.72491         1.53904
C         41.73377        73.13568         1.26051
C         44.82006        33.38247         3.56354
C         43.62209        34.03302         3.30593
C         44.86691        36.04238         2.60632
C         43.61282        35.38170         2.84014
C         44.88396        37.36922         2.13232
C         43.67998        38.08098         1.96036
C         44.95498        40.17139         1.51476
C         43.69959        39.47966         1.62119
C         44.96035        41.58978         1.34119
C         43.73971        42.29381         1.22200
C         45.03641        44.41709         0.83663
C         43.73691        43.79924         1.28196
C         45.01083        45.80445         0.44332
C         43.82979        46.46430         0.10833
C         45.12061        48.52254        -0.44352
C         43.85649        47.84099        -0.34335
C         45.18698        49.84863        -1.15397
C         43.90785        50.63563        -1.04015
C         45.17306        52.75328        -1.18344
C         43.93003        52.00074        -1.12364
C         45.16689        54.12968        -1.34151
C         43.92451        54.86404        -1.41775
C         45.16203        56.95463        -0.99635
C         43.94805        56.27685        -1.42420
C         44.97280        58.24197        -0.59304
C         44.00087        59.13539        -1.31413
C         45.30110        61.33666        -0.63903
C         43.97530        60.59098        -0.90787
C         45.25945        62.75126        -1.19220
C         44.06108        63.43412        -1.24843
C         45.30624        65.57892        -1.35232
C         44.04652        64.86503        -1.74453
C         45.30886        66.94992        -0.98973
C         44.07853        67.67298        -0.93073
C         45.35594        69.76149        -0.30380
C         44.13430        69.13670        -0.81707
C         45.36703        71.04794         0.10923
C         44.25928        72.01350         0.11240
C         44.96664        73.40916        -0.03971
C         44.24203        73.03923         1.26278
C         46.05024        34.03435         3.38597
C         47.33482        36.06124         2.80686
C         46.10326        35.35969         2.90840
C         47.40774        37.37302         2.30416
C         46.18314        37.96388         1.64307
C         47.40262        40.16767         1.59475
C         46.18389        39.47255         1.63109
C         47.41758        41.57417         1.40125
C         46.21647        42.28588         1.24849
C         47.49178        44.28283         0.34665
C         46.21623        43.69519         0.91210
C         47.56034        45.78078         0.52956
C         46.27047        46.55927         0.49163
C         47.58369        48.59404        -0.13297
C         46.31166        47.92962        -0.03522
C         47.62086        49.97811        -0.43305
C         46.41369        50.65861        -0.79692
C         47.66648        52.77454        -0.97707
C         46.41637        52.03529        -0.98276
C         47.68935        54.11062        -1.31480
C         46.44371        54.90735        -1.57080
C         47.78575        57.00400        -1.03200
C         46.47427        56.21283        -0.71290
C         47.86148        58.44737        -1.02274
C         46.79866        59.32994        -0.59654
C         47.68127        61.25431        -1.83908
C         46.56489        60.58410        -1.06832
C         47.78883        62.70716        -1.33137
C         46.48478        63.43649        -1.45597
C         47.77039        65.55316        -1.37058
C         46.51161        64.85227        -1.43634
C         47.76454        66.94006        -1.04185
C         46.55416        67.59329        -0.73740
C         47.82398        69.72321        -0.58808
C         46.61838        68.95464        -0.11222
C         47.70159        71.20724        -0.66531
C         46.68604        71.72654         0.36086
C         47.53799        73.96252        -0.20004
C         46.44823        73.18920         0.03616
C         48.60243        38.08933         2.27267
C         49.87174        40.06980         1.56158
C         48.66978        39.44345         1.79686
C         49.89285        41.44298         0.94816
C         48.74582        42.29130         1.50654
C         49.96212        44.25065         0.58576
C         48.76834        43.64503         0.83377
C         50.01063        45.63589         0.04793
C         48.79681        46.45189         0.12380
C         50.07991        48.53986         0.02076
C         48.82276        47.84544         0.00284
C         50.04287        50.02814         0.26613
C         48.84645        50.71914        -0.33281
C         50.14835        52.81467        -0.63926
C         48.89206        52.07062        -0.64051
C         50.20068        54.11190        -1.08892
C         48.97671        54.80418        -1.65939
C         50.21180        57.00689        -1.61615
C         48.93627        56.30117        -1.39248
C         50.27918        58.45922        -1.44732
C         49.04291        59.15749        -1.38757
C         50.23466        61.28637        -1.58244
C         49.01920        60.56458        -1.59247
C         50.25609        62.71479        -1.68025
C         48.96728        63.43970        -1.98679
C         50.20874        65.59672        -1.52922
C         48.99172        64.89219        -1.58833
C         50.20797        66.99532        -1.27365
C         49.00846        67.65730        -1.03933
C         50.13031        69.91654        -1.45305
C         48.97424        69.10271        -0.93334
C         50.15911        71.31829        -0.88275
C         49.00148        71.93379        -0.52359
C         50.16122        74.12029        -0.38448
C         48.93371        73.34169         0.03412
C         51.19756        42.19079         1.08432
C         52.44992        44.30732         0.93117
C         51.23228        43.55688         0.87488
C         52.52509        45.68510         0.66097
C         51.34024        46.38563         0.10661
C         52.51975        48.56352         0.38079
C         51.29102        47.85888         0.17904
C         52.55248        49.98885         0.21874
C         51.35164        50.70902        -0.01893
C         52.61516        52.77528        -0.24804
C         51.38566        52.09363        -0.28594
C         52.57042        54.27896        -0.30907
C         51.56287        54.73235        -1.36922
C         52.73389        57.02715        -1.08698
C         51.55584        56.25310        -1.50510
C         52.73345        58.43392        -1.17632
C         51.49682        59.15075        -1.38901
C         52.67175        61.30918        -1.13733
C         51.48391        60.58995        -1.36677
C         52.67000        62.74668        -1.19240
C         51.44440        63.43096        -1.50969
C         52.67007        65.57165        -1.49550
C         51.46468        64.87403        -1.56649
C         52.66508        67.05039        -1.79235
C         51.50974        67.72563        -1.04398
C         52.61118        69.94198        -1.41549
C         51.45974        69.21155        -1.32256
C         52.57304        71.39510        -1.32147
C         51.41063        72.04956        -0.95934
C         52.59803        74.21275        -0.77840
C         51.34779        73.49579        -0.71821
C         53.69308        46.43564         0.86738
C         54.94963        48.56205         0.75248
C         53.73635        47.84889         0.65546
C         55.01420        49.96284         0.52767
C         53.79981        50.67278         0.24337
C         55.08080        52.75730         0.02419
C         53.83373        52.08141         0.00856
C         55.19678        54.17787        -0.46233
C         53.90018        54.94235        -0.49260
C         55.15183        57.06152        -0.45381
C         53.92573        56.32298        -0.66840
C         55.13975        58.48971        -0.57969
C         53.93173        59.17919        -0.91159
C         55.08165        61.33243        -0.56247
C         53.91126        60.60636        -0.87661
C         54.98326        62.80719        -0.24725
C         53.82967        63.49003        -0.92146
C         55.07547        65.64456        -0.93819
C         53.87132        64.89927        -1.13073
C         55.09162        67.09436        -1.11007
C         53.95071        67.77408        -1.47804
C         55.13084        70.01068        -1.22804
C         53.93644        69.26288        -1.76223
C         55.09686        71.40853        -1.20277
C         53.83812        72.16637        -1.60083
C         55.04371        74.25824        -0.89357
C         53.80085        73.57655        -1.03626
C         56.23297        50.68181         0.59632
C         57.52641        52.80875         0.42066
C         56.28266        52.07269         0.35010
C         57.56625        54.20182         0.38541
C         56.23723        54.92765         0.35847
C         57.51512        57.06386         0.22286
C         56.32898        56.37928        -0.04277
C         57.46624        58.52627         0.28327
C         56.29637        59.23231        -0.24605
C         57.53006        61.38222        -0.10618
C         56.29907        60.65040        -0.28701
C         57.51172        62.82662        -0.20066
C         56.27711        63.55903        -0.40257
C         57.58684        65.68253        -0.69304
C         56.27108        64.93575        -0.61931
C         57.49517        67.17000        -0.43943
C         56.31976        67.84802        -0.83130
C         57.53401        69.97267        -0.63757
C         56.32002        69.27463        -0.88094
C         57.55918        71.43326        -0.83903
C         56.28386        72.15976        -0.98352
C         57.56464        74.36359        -0.86270
C         56.26345        73.57955        -0.91082
C         58.75530        54.95775         0.50579
C         59.96993        57.12518         0.58539
C         58.76062        56.38000         0.48129
C         60.02969        58.53422         0.51050
C         58.75906        59.28989         0.48513
C         60.00254        61.38691         0.13584
C         58.76285        60.71748         0.12634
C         59.98750        62.84439         0.00141
C         58.69787        63.52188        -0.04867
C         59.75204        65.71839         0.77988
C         58.62914        64.98554         0.14341
C         59.74603        67.24824         0.80029
C         58.64452        67.88232        -0.04350
C         59.89921        70.02287         0.19874
C         58.69471        69.29057        -0.21024
C         59.85083        71.43644         0.30935
C         58.77287        72.19490        -0.34724
C         59.56904        74.29263         0.66281
C         58.65587        73.64921        -0.08980
C         61.22383        59.28132         0.52811
C         62.41159        61.46429         0.70883
C         61.22671        60.70472         0.44437
C         62.42791        62.86426         0.78698
C         61.20437        63.62506         0.42530
C         62.30155        65.80712         0.76715
C         61.05132        64.98057         1.12127
C         62.23618        67.21007         1.26281
C         61.12522        67.84214         0.48935
C         62.10674        70.04227         1.26957
C         61.06132        69.34048         0.62193
C         61.98214        71.44191         1.46734
C         60.85700        72.13558         0.99411
C         61.98504        74.32174         1.42064
C         60.66989        73.58266         1.41205
C         63.56140        63.63880         1.13783
C         64.64261        65.77944         1.66326
C         63.55244        65.05517         1.16538
C         64.60868        67.19259         1.87710
C         63.36113        67.90276         1.61418
C         64.42016        70.03277         2.17677
C         63.30829        69.34848         1.72074
C         64.34809        71.48062         2.43870
C         63.06473        72.21178         2.11939
C         64.36633        74.34546         2.06420
C         63.13170        73.67754         1.85693
C         65.72879        67.92488         2.26586
C         66.82140        70.10137         2.69027
C         65.67976        69.34982         2.40826
C         66.81789        71.54029         2.67953
C         65.60031        72.24334         2.50831
C         66.80156        74.36782         2.52844
C         65.57358        73.66248         2.39045
C         68.01617        72.28351         2.81457
C         67.99157        73.67978         2.74997
O         46.99767        46.31447         1.76515
O         35.80843        50.30873         0.18820
O         42.13117        63.38064         0.29549
O         51.00408        56.61166        -2.80502
O         60.90991        63.52065        -0.98391
O         31.54850        72.81750         0.02163
O         61.50777        67.38934        -0.87782
O         63.35939        71.83286         3.49960
O         47.12725        71.47336         1.69015
O         33.61899        59.44228        -2.93673
O         45.86853        58.79563         0.32978
O         34.46141        63.43884        -2.23213
O         40.07961        71.06877         1.94382
O         37.63512        66.70466        -2.05870
O         43.54808        69.75249        -2.06174
O         58.61371        65.25817         1.60278
O         58.62422        71.87255        -1.78114
O         57.87988        59.01779         1.62868
O         50.83707        45.81954        -1.14552
O         36.36720        69.24136         1.93953
O         49.10771        54.67677        -3.13659
H         49.17931        53.71903        -3.33967
O         43.60366        44.12625         2.72121
H         44.42119        43.81724         3.16651
O         49.85518        50.16942         1.72931
H         50.61617        49.73009         2.16568
O         27.25107        68.73716         3.84367
H         27.21922        69.64335         4.22183
O         49.10622        73.21336         1.47826
H         48.41337        72.54345         1.78663
O         47.35368        61.20242        -3.23953
H         47.90935        61.86738        -3.71098
O         52.03595        54.75777         0.96448
H         52.70505        54.57620         1.65853
O         47.18765        71.50582        -2.00013
H         47.83653        71.13522        -2.64111
O         44.08792        64.76452        -3.22739
H         44.17674        65.67561        -3.57996
O         46.28454        37.55611         0.22948
H         45.49106        37.90201        -0.23174
O         42.20606        52.67517         0.37448
H         42.88699        53.14229         0.90242
O         33.38803        66.49043         2.39954
H         33.22736        67.31515         2.92185
O         38.96902        51.94200        -3.46197
H         39.90410        52.15652        -3.71957
O         62.24305        66.07096        -0.69890
O         55.68462        54.12455        -1.83661
H         54.97115        53.74862        -2.39482
O         35.07851        57.22360         0.66850
H         34.90552        56.33676         1.04882
O         37.62918        54.38164        -3.33356
H         38.10603        53.60463        -3.71653
O         39.06811        60.60769        -3.12393
H         38.24696        60.17829        -3.44807
O         41.75581        51.98745        -3.22835
H         41.79367        51.04537        -3.51482
O         46.52449        55.83491         0.67465
H         46.45216        56.65570         1.20754
O         41.34160        64.69443        -3.05979
H         41.18199        65.56304        -3.48431
O         46.81890        68.78496         1.32652
H         46.96553        69.71664         1.68642
O         45.41696        61.50955         0.81069
H         45.42527        60.60606         1.20325
O         29.64631        67.60498         3.18210
H         28.82182        67.96097         3.61711
O         59.45674        67.64899         2.16056
H         58.71977        67.07830         2.47597
O         51.82161        67.57862         0.37057
H         51.06718        67.92738         0.89076
O         34.89366        48.16950        -2.71767
H         35.71036        48.32639        -3.23462
O         48.08434        62.64315         0.08922
H         47.26276        62.36272         0.56131
O         49.01271        42.48815         2.92165
H         48.32420        43.08446         3.28259
O         44.96670        72.85998         2.43502
H         45.82334        72.35071         2.27570
O         58.06593        65.55704        -2.06628
H         57.45771        66.05814        -2.64889
O         31.35412        60.84293        -2.52255
H         32.15791        60.37652        -2.93367
O         45.33593        49.51584        -2.58532
H         45.35578        50.36258        -3.08040
O         30.60895        60.70731         1.07658
H         29.93856        61.10280         1.67334
O         34.05793        72.19909        -0.86102
H         33.16112        72.59073        -0.99619
O         54.03456        69.37925        -3.22305
H         53.27848        68.85859        -3.58913
O         48.77945        63.42434        -3.43999
H         49.52215        63.92085        -3.84382
O         32.01484        68.90019         3.03401
H         31.20673        68.42006         3.37187
O         35.74674        58.18551        -2.81572
H         35.02269        58.58667        -3.38443
O         44.49012        59.14522        -2.70420
H         43.82934        59.61923        -3.25291
O         54.66809        62.85667         1.20185
H         55.41279        62.42814         1.67605
O         58.02372        74.54591        -2.21577
H         58.32723        73.66028        -2.52918
O         37.70266        70.28397        -1.20115
H         38.43678        70.85002        -1.51972
O         46.41777        55.32084        -2.96347
H         47.34367        55.31891        -3.30870
O         60.22194        73.53840         2.81221
H         60.93518        73.11619         3.33907
O         52.01273        54.20525        -2.64033
H         51.53171        54.72200        -3.32941
O         47.44712        44.06340        -1.09777
H         47.76283        43.15106        -1.27480
O         37.86764        56.93428         0.71777
H         37.07096        57.42114         1.05255
O         28.76976        61.00183        -2.13399
H         29.63020        60.93459        -2.62895
O         53.89623        72.33343        -3.05498
H         54.76043        72.74330        -3.27120
O         55.73187        54.93865         1.72914
H         56.38368        55.41724         2.28413
O         36.32153        59.28746         0.62912
H         37.05071        59.83217         0.99345
O         40.31167        49.49718        -3.15924
H         39.63026        50.06186        -3.59707
O         49.87534        70.07085        -2.89788
H         50.64443        70.55174        -3.27426
O         49.61229        41.29466        -0.48483
H         50.33912        40.76922        -0.88020
O         61.07181        64.74326         2.53980
H         60.13765        64.67757         2.84073
O         29.06470        68.79858        -0.25026
H         28.94336        69.69332        -0.63333
O         52.37957        67.20368        -3.22154
H         52.99011        66.61454        -3.71305
O         42.62272        72.19055        -1.70808
H         43.16410        71.73354        -2.39146
H         23.15557        74.90273         3.01932
H         25.62736        74.94621         2.76471
H         28.08502        74.98256         2.45298
H         30.54195        74.96163         2.37695
H         33.09359        74.99808         2.06113
H         35.47460        75.06344         1.80635
H         37.99125        75.11812         1.60829
H         40.58351        74.88461         1.80053
H         42.99479        74.64605         2.14155
H         44.53340        74.18582        -0.69184
H         47.45605        75.03122        -0.45653
H         50.17220        75.20796        -0.20455
H         52.60718        75.27537        -0.48603
H         55.03666        75.34203        -0.69646
H         57.38090        75.37905        -0.43173
H         59.47885        75.37927         0.82057
H         61.99944        75.40724         1.23936
H         64.40311        75.43586         1.92064
H         66.80350        75.46440         2.45127
H         22.24773        69.03063         2.39766
H         21.00912        71.15414         2.78809
H         21.02169        73.62606         3.07239
H         24.68592        64.84143         1.47967
H         23.48351        66.92263         2.04573
H         26.94775        60.78953         0.08089
H         25.86797        62.77567         0.92248
H         29.33167        56.51965        -0.80225
H         28.14822        58.62596        -0.68561
H         31.79842        52.23062        -1.44161
H         30.54041        54.37031        -1.16304
H         34.33637        47.95287        -0.74586
H         33.03771        50.13807        -1.59948
H         36.68200        43.80770         0.11777
H         35.50291        45.86835        -0.59200
H         39.06276        39.69250         1.45328
H         37.87547        41.74900         0.80289
H         41.44960        35.55873         2.74759
H         40.25136        37.62294         2.09457
H         44.80856        32.34524         3.92728
H         42.66509        33.51621         3.46670
H         46.98661        33.50900         3.62277
H         48.25219        35.57811         3.17790
H         49.53118        37.60643         2.61477
H         50.81602        39.52256         1.71106
H         52.13285        41.63352         1.24964
H         53.36513        43.78357         1.24717
H         54.60649        45.92473         1.20704
H         55.87593        48.01382         0.97975
H         57.16068        50.14270         0.83917
H         58.46134        52.24143         0.54869
H         59.71458        54.42726         0.60955
H         60.91305        56.56607         0.68261
H         62.18247        58.75652         0.65591
H         63.33451        60.91284         0.94566
H         64.48852        63.11879         1.42607
H         65.55889        65.23310         1.93650
H         66.68923        67.41115         2.42246
H         67.77929        69.58337         2.84840
H         68.96762        71.75435         2.96617
H         68.92985        74.24191         2.85871
