         276
 CSIRO Nanostructure Databank - Neutral Graphene Oxide Data Set
C        -11.20526         0.62170         0.32773
C        -10.08022         1.40820        -0.26897
C         -8.78185         0.66557        -0.43593
C         -7.46833         1.36624        -0.60466
C         -6.25528         0.61558        -1.11650
C         -4.96875         1.44584        -0.99563
C         -3.67539         0.69569        -0.76241
C         -2.43112         1.39320        -1.28514
C         -1.13923         0.79394        -0.76114
C          0.13724         1.36166        -1.31028
C          1.32036         0.70225        -1.19249
C          2.61859         1.46595        -1.34066
C          3.84090         0.71131        -0.76250
C          4.91895         1.50737        -0.11315
C          6.09718         0.77487         0.43510
C          7.39018         1.51103         0.48473
C          8.57710         0.78743         0.98776
C          9.89511         1.51447         0.98844
C         11.12967         0.68261         0.91099
C        -10.21457         2.90623        -0.37579
C         -9.19749         3.74165         0.04064
C         -7.29211         2.58981        -0.07162
C         -6.12657         3.46966        -0.24946
C         -4.92777         2.79854        -0.81381
C         -3.77750         3.62815        -1.39612
C         -2.44197         2.87469        -1.46882
C         -1.13421         3.57477        -1.16149
C         -0.08465         2.65676        -0.55347
C          1.19195         3.35435        -0.10489
C          2.50103         2.78104        -0.55785
C          3.74938         3.64683        -0.73024
C          4.96738         2.85536        -0.26527
C          6.30528         3.53624        -0.47981
C          7.44921         2.86191         0.25220
C          8.67932         3.60996         0.48500
C          9.86608         2.96000         0.68859
C         -8.87914         5.10623        -0.22833
C         -7.57483         5.70887        -0.15215
C         -6.24606         4.97159        -0.14291
C         -4.93962         5.74853        -0.44046
C         -3.67134         5.04184        -0.83474
C         -2.40677         5.82952        -1.12078
C         -1.12148         5.04645        -0.90755
C         -0.12383         5.62512         0.07573
C          1.13476         4.79641         0.40867
C          2.45546         5.54032         0.38974
C          3.63413         4.96654         0.03363
C          4.92884         5.71638         0.00614
C          6.23605         5.05441        -0.32024
C          7.57043         5.80778        -0.24059
C          8.57207         5.11183         0.69291
C         -7.52571         7.09658        -0.12067
C         -6.32167         7.89667        -0.40793
C         -5.02505         7.21911        -0.72509
C         -3.74073         8.09965        -0.79727
C         -2.41662         7.29814        -0.81469
C         -1.21430         7.90860        -0.16838
C          0.01783         7.13171         0.01679
C          1.16237         7.73696         0.47406
C          2.35959         6.94771         0.98549
C          3.66987         7.74620         0.88300
C          4.96765         7.08738         0.57914
C          6.20171         7.89011         0.34224
C          7.38664         7.28077         0.08324
C         -6.25218         9.29962         0.05916
C         -5.07381         9.85887         0.43169
C         -3.78898         9.21797         0.21864
C         -2.62049         9.75209         0.68465
C         -1.33850         9.12668         0.47061
C         -0.16015         9.80303         1.13345
C          1.16737         9.16582         0.79506
C          2.32782         9.85821         0.92591
C          3.61046         9.21260         0.47687
C          4.89596         9.92928         0.81019
C          6.08978         9.31606         0.65635
C        -11.04840        -0.58740         0.89231
C         -9.69286        -1.22863         1.10513
C         -8.71633        -0.82070        -0.03564
C         -7.32195        -1.25250         0.39510
C         -6.12542        -0.64227        -0.26314
C         -4.89176        -1.44962        -0.42935
C         -3.68226        -0.80122        -1.07528
C         -2.38525        -1.39501        -0.56692
C         -1.21921        -0.69128        -0.57922
C          0.06497        -1.45689        -0.58826
C          1.35012        -0.73741        -0.86937
C          2.61044        -1.50391        -1.25549
C          3.85283        -0.77917        -0.67689
C          4.73445        -1.49168         0.37331
C          6.03348        -0.71223         0.69618
C          7.32780        -1.48646         0.88267
C          8.60517        -0.72401         0.94172
C          9.83098        -1.38062         0.32350
C         11.10261        -0.64669         0.70377
C         -9.69172        -2.75072         1.19524
C         -8.51753        -3.43905         1.12728
C         -7.23490        -2.62956         1.06127
C         -5.96761        -3.40790         0.73410
C         -4.86740        -2.73310        -0.02828
C         -3.64971        -3.59917         0.10456
C         -2.28905        -2.84812        -0.11423
C         -1.36678        -3.56725        -1.13390
C         -0.00747        -2.88687        -1.09175
C          1.25063        -3.67621        -1.23331
C          2.47483        -2.93713        -0.77035
C          3.73095        -3.66608        -0.41780
C          4.94822        -2.92225        -0.10946
C          6.14782        -3.69966         0.20592
C          7.38003        -2.97223         0.64188
C          8.70031        -3.64827         0.47370
C          9.85359        -2.88753         0.48616
C         -8.32872        -4.83462         1.54543
C         -7.15154        -5.50395         1.31214
C         -6.27336        -4.84416         0.24400
C         -5.07592        -5.64067        -0.24818
C         -3.84789        -4.89348        -0.72686
C         -2.59195        -5.74103        -0.58517
C         -1.28717        -5.05365        -0.79994
C         -0.05153        -5.89207        -1.00778
C          1.30449        -5.20601        -1.25203
C          2.38881        -5.77085        -0.32990
C          3.72996        -5.14640        -0.58711
C          4.99516        -5.88439        -0.36046
C          6.30847        -5.09082        -0.38462
C          7.51786        -5.84384         0.13644
C          8.69324        -5.08376         0.36911
C         -6.82280        -6.82181         1.85340
C         -5.55328        -7.34430         2.03219
C         -5.14488        -7.04240        -0.48487
C         -3.97787        -7.82933        -0.39578
C         -2.65904        -7.24282        -0.80282
C         -1.48798        -7.89068        -0.02520
C         -0.14383        -7.26782        -0.42109
C          1.04249        -7.98957         0.19142
C          2.33021        -7.17199         0.16747
C          3.58691        -7.99965         0.41914
C          4.92113        -7.20840         0.33932
C          6.20089        -7.97363         0.38733
C          7.47679        -7.24474         0.17285
C         -5.31614        -8.81150         2.14507
C         -4.62143        -9.60423         1.30603
C         -4.01332        -9.30660        -0.07238
C         -2.67082       -10.01301        -0.27360
C         -1.43514        -9.38682        -0.30183
C         -0.17397       -10.03902        -0.51371
C          1.10379        -9.39128        -0.38920
C          2.33978        -9.98057        -0.59620
C          3.65090        -9.20348        -0.54416
C          4.88502       -10.01723        -0.13787
C          6.03513        -9.45133         0.28555
O          5.59091        -7.29071         1.62233
O          0.63453         4.68969         1.81388
O         -0.63963         5.33429         1.44944
O          3.90131         3.96196        -2.09833
O         -6.49320        -0.30709         1.12203
O          2.04527         2.56430         0.78922
O          6.56210        -4.91508        -1.84479
O          5.45185         5.70186        -1.37343
O          9.14065         1.27147         2.24727
O         -1.79760        -5.32920         0.54930
O         -0.82989         1.76557         0.43485
O         -6.94005        -2.42358         2.50457
O         -3.95348         5.33365         0.56277
O         -9.67661         0.84315        -1.59787
O         -0.58963         4.49935        -2.14805
O         -5.91357         7.56030        -1.82150
O         -2.26245         6.77109        -2.20361
O          4.54169         7.32454         1.97467
O          0.96304        -1.11150         0.49814
O         -2.40125         1.95436        -2.61978
O          4.57185        -0.13948        -1.75652
O          6.52400        -3.64776         1.63491
O         -8.23460         3.08608         0.82551
O          0.64408        -3.07617        -2.41151
O         -3.70837        -4.06904         1.48257
O          2.13298        -6.01404         1.06481
O          4.39249        -5.80724        -1.69513
O          5.80162         0.21866         1.78318
O          2.67809        -3.26382         0.60564
O         -0.11189        -7.07578        -1.87506
O         -5.95762         4.17838         1.04048
O          8.04329        -1.27176         2.15443
O         -4.09911        -4.56859        -2.10856
H         -4.03568        -5.39135        -2.63876
O          1.74941        -5.55478        -2.57502
H          1.35494        -4.91835        -3.20999
O          3.97686        -1.48898         1.59189
H          4.54566        -1.82424         2.31618
O          3.53836         9.14523        -0.98913
H          3.50975        10.06188        -1.33448
O          9.65060        -1.14794        -1.11917
H         10.45011        -1.47730        -1.58125
O         -7.10628        -4.64096        -0.92823
H         -7.47680        -5.51258        -1.18380
O          6.54264         3.30111        -1.89685
H          5.71960         3.64828        -2.34343
O         -2.62163        -7.50540        -2.23395
H         -1.67085        -7.45764        -2.51838
O          8.10620         5.30789         2.03439
H          8.60272         4.71190         2.63245
O          0.75554        -8.18171         1.60413
H          1.62517        -8.36589         2.04287
O         -6.38188         0.22151        -2.49115
H         -6.50652         1.02103        -3.04176
O         -1.90523        -3.37915        -2.45622
H         -1.14257        -3.29788        -3.07573
O          3.89205        -8.66295        -1.86647
H          3.76921        -9.37510        -2.52723
O          8.15780         5.73599        -1.55864
H          7.42922         5.85073        -2.20756
O         -3.70639        -1.01398        -2.49595
H         -3.46261        -1.95288        -2.67191
O         -4.21006         3.85152        -2.76551
H         -3.82281         3.12508        -3.30975
O          2.73738        -1.56266        -2.67746
H          3.28316        -0.78487        -2.95346
O         -4.96345        -9.92923        -1.01155
H         -4.56161        -9.87864        -1.90589
O         -5.40070        -3.43499         2.13062
H         -4.93248        -2.58095         2.29743
O         -3.78155         8.81350        -2.04881
H         -3.54284         8.17344        -2.75709
O         -6.35942        -7.64872        -0.60230
H         -6.20278        -8.62169        -0.72008
O         -1.81161        -7.70976         1.35619
H         -0.99303        -7.87458         1.88296
O         -3.55157         0.70227         0.68787
H         -3.53498         1.62395         1.02319
O          3.45272        -8.55281         1.74481
H          4.19733        -8.17979         2.28363
O          7.63822        -3.93380        -1.98025
H          7.73529        -3.89884        -2.96303
O         -1.58124        -2.80552         1.12696
H         -2.01095        -3.45839         1.73344
O         -9.20017        -0.71096         2.36266
H         -8.38489        -1.21330         2.61872
O         -9.03536        -1.60958        -1.19666
H         -9.54088        -1.02162        -1.80785
O         -4.43083        -6.62504         2.18094
H         -4.52682        -5.65045         2.03640
O          2.08467         6.80937         2.40137
H          2.94872         6.63620         2.84264
O          2.81876         1.71462        -2.73055
H          3.33097         2.57776        -2.81091
O         -0.35095         9.78509         2.56028
H         -0.22234         8.86369         2.87007
H         12.04620        -1.21597         0.69677
H         12.09281         1.18466         1.09711
H         10.80181         3.53560         0.77545
H          9.58727         5.58587         0.56669
H          8.29461         7.90029         0.00208
H          7.02317         9.88136         0.80380
H          4.85160        10.99793         1.07206
H          2.31732        10.91614         1.23143
H         -0.14740        10.88202         0.82825
H         -2.64410        10.65218         1.31742
H         -5.07056        10.85490         0.90080
H         -7.19824         9.83235         0.23764
H         -8.47281         7.65197        -0.02583
H         -9.69833         5.77733        -0.53280
H        -11.07008         3.29278        -0.95049
H        -12.21221         1.06435         0.26095
H        -11.92947        -1.10817         1.30112
H        -10.63636        -3.27952         1.39940
H         -9.09756        -5.28544         2.19197
H         -7.66120        -7.53049         1.94212
H         -5.77106        -9.30295         3.02385
H         -4.55775       -10.67265         1.57406
H         -2.73266       -11.10376        -0.42023
H         -0.18762       -11.11024        -0.77360
H          2.38598       -11.02205        -0.95694
H          4.83255       -11.11485        -0.22379
H          6.90114       -10.08943         0.52542
H          8.40929        -7.79786         0.37300
H          9.64753        -5.61765         0.50407
H         10.82770        -3.39523         0.39065
