         320
 CSIRO Nanostructure Databank - Neutral Graphene Oxide Data Set
C         30.43687        57.08244        -0.42365
C         30.40975        58.53338        -0.44148
C         29.19403        59.25648        -0.49575
C         30.39657        61.36714        -0.42843
C         29.20557        60.65852        -0.50507
C         32.84792        52.81892        -0.49285
C         32.83703        54.21944        -0.69181
C         31.66011        54.95081        -0.52534
C         32.84400        57.14345        -1.02994
C         31.60446        56.36953        -0.62027
C         32.90491        58.46175        -0.25253
C         31.62233        59.24511        -0.36784
C         32.85348        61.37770        -0.14076
C         31.64768        60.67729        -0.32250
C         35.24423        48.55236         0.13728
C         35.21826        49.93734         0.06003
C         34.02104        50.66241        -0.14121
C         35.29649        52.76451        -0.27339
C         34.02939        52.05373        -0.36950
C         35.35485        54.15084        -0.80583
C         34.08958        54.91032        -1.20485
C         35.32757        57.10389        -0.79720
C         34.14798        56.39652        -0.86082
C         35.39569        58.54731        -0.62227
C         34.09938        59.32612        -0.68812
C         35.38945        61.40911        -0.20901
C         34.13852        60.64332         0.11165
C         37.64852        44.19020         0.05996
C         37.24594        45.42257         0.56145
C         36.34208        46.40372         0.08662
C         37.64786        48.50201         0.76064
C         36.43918        47.79346         0.37873
C         37.68075        49.95315         0.70838
C         36.54776        50.64517        -0.02057
C         37.60017        52.91646         0.64783
C         36.43260        52.13346         0.17306
C         37.70860        54.34759         0.20447
C         36.63313        54.89941        -0.68755
C         37.89873        57.12011        -0.71753
C         36.62194        56.38357        -0.91346
C         37.87392        58.59437        -0.53536
C         36.58776        59.25642        -0.52193
C         37.83007        61.42260        -0.40185
C         36.58334        60.72470        -0.39890
C         40.21755        40.01307         0.28434
C         40.18555        41.43024         0.38240
C         38.96805        42.15191         0.27107
C         40.09779        44.25693         0.81870
C         38.88904        43.54395         0.44935
C         40.15727        45.67920         1.02581
C         38.98357        46.43899         1.23876
C         40.13680        48.53533         1.04958
C         38.89288        47.83052         1.01563
C         40.06486        49.97675         1.39399
C         38.79955        50.67630         1.08043
C         40.14757        52.86040         1.02076
C         38.77777        52.18412         1.31471
C         40.22113        54.30166         0.61249
C         39.00347        55.07489         0.22936
C         40.35473        57.09539        -0.27333
C         39.07487        56.36288        -0.20918
C         40.35433        58.59285        -0.45577
C         39.05725        59.30035        -0.46541
C         40.30462        61.43440        -0.29673
C         39.07049        60.75176        -0.38357
C         42.72662        35.72785         0.13637
C         42.66530        37.16392         0.22772
C         41.44885        37.86203         0.36462
C         42.67244        39.99086         0.48600
C         41.43442        39.28044         0.37655
C         42.70010        41.47680         0.26095
C         41.39421        42.16472         0.56072
C         42.58146        44.28115         0.98532
C         41.34858        43.55729         0.78163
C         42.63053        45.67945         1.04748
C         41.38811        46.40560         1.02003
C         42.61921        48.57077         1.25981
C         41.34377        47.82606         1.11525
C         42.55746        50.05196         1.05251
C         41.34902        50.73317         1.64363
C         42.71067        52.93511         1.49757
C         41.34100        52.26619         1.81071
C         42.73305        54.43844         1.24145
C         41.42690        55.12491         0.98335
C         42.79655        57.21879         0.34476
C         41.50146        56.52430         0.47742
C         42.79302        58.63091         0.12618
C         41.58149        59.33570        -0.11052
C         42.79145        61.45745        -0.06508
C         41.56137        60.75961        -0.15788
C         45.31659        33.05532        -0.36873
C         44.09487        33.64800        -0.05005
C         45.04604        35.82235        -0.70300
C         43.90817        35.05203        -0.17877
C         45.07114        37.33349        -0.36860
C         43.88057        37.91593         0.24671
C         45.18829        39.98012         0.83236
C         43.89131        39.29999         0.52571
C         45.08194        41.44743         1.12073
C         43.89166        42.11321         0.91576
C         45.19613        44.31466         1.19227
C         43.81081        43.52683         1.23507
C         45.10833        45.72165         0.86709
C         43.90197        46.37659         0.97364
C         45.14861        48.56988         0.67596
C         43.91560        47.85371         1.05886
C         45.07681        50.02546         0.24987
C         43.80657        50.78297         0.67313
C         45.11243        52.89928         0.85938
C         43.90789        52.21747         1.01949
C         45.15935        54.35056         0.83436
C         43.97103        55.08433         0.78086
C         45.23362        57.20555         0.53527
C         43.98730        56.50494         0.53059
C         45.24555        58.62636         0.39115
C         44.02767        59.34074         0.19399
C         45.27036        61.45375         0.08756
C         44.02736        60.77363         0.06630
C         46.42910        33.79566        -0.80467
C         47.40219        36.03953        -1.36500
C         46.34506        35.19477        -0.95433
C         47.39109        37.43125        -1.11877
C         46.34961        38.02020        -0.38384
C         47.80570        39.99666         0.18965
C         46.50391        39.27979         0.38056
C         48.12488        41.11495         0.88409
C         46.26441        42.21672         1.43036
C         47.71056        44.22446         0.71964
C         46.44022        43.55113         1.06693
C         47.65201        45.64583         0.51500
C         46.33192        46.38130         0.29318
C         47.57613        48.59884         0.36460
C         46.34231        47.88432         0.52750
C         47.57284        50.04198         0.43246
C         46.35664        50.76563         0.53730
C         47.59470        52.87742         0.62990
C         46.35634        52.16473         0.65524
C         47.61426        54.30133         0.79373
C         46.42427        55.04013         0.80662
C         47.65086        57.21224         0.88485
C         46.44213        56.49052         0.77149
C         47.69391        58.62065         0.66102
C         46.48617        59.32883         0.42795
C         47.73566        61.43653         0.22776
C         46.49533        60.76117         0.24631
C         48.51416        38.31811        -1.60457
C         50.02307        40.24620        -0.94072
C         48.95460        39.28148        -0.50767
C         50.19749        41.47663        -0.38262
C         49.29062        42.03236         0.69490
C         50.07659        44.29655         0.04714
C         48.95097        43.54164         0.47810
C         50.02546        45.70189        -0.06309
C         48.81254        46.38712         0.17951
C         49.99065        48.56737         0.00486
C         48.79359        47.86559         0.15366
C         50.04950        50.00898         0.30407
C         48.79338        50.77648         0.35989
C         50.02438        53.01701         0.03087
C         48.81753        52.17315         0.43502
C         50.16561        54.30616         0.82779
C         48.88564        54.96740         1.13579
C         50.16520        57.23785         1.28272
C         48.86823        56.50097         1.28836
C         50.17563        58.65050         0.85169
C         48.95161        59.32771         0.65053
C         50.20124        61.42002         0.31576
C         48.96111        60.74451         0.39264
C         51.34366        42.28484        -0.66988
C         52.53536        44.38191        -0.49353
C         51.33183        43.62783        -0.35195
C         52.52326        45.76599        -0.55255
C         51.16598        46.41182        -0.77141
C         52.51510        48.65429        -0.55217
C         51.19432        47.92036        -0.54786
C         52.58709        50.05383        -0.11526
C         51.33314        50.76423         0.22656
C         52.62112        52.87258         0.40006
C         51.36073        52.22884        -0.17079
C         52.62977        54.28697         0.65999
C         51.36770        54.97616         0.89432
C         52.67002        57.15939         0.77706
C         51.45115        56.43266         1.19115
C         52.65469        58.57801         0.65392
C         51.41412        59.31161         0.67292
C         52.66747        61.39613         0.23832
C         51.42322        60.72601         0.40986
C         53.73438        46.49573        -0.60337
C         54.99617        48.61297        -0.49698
C         53.78820        47.89817        -0.58209
C         55.04029        50.01234        -0.26506
C         53.78431        50.72535        -0.04610
C         55.09570        52.74815         0.61520
C         53.79305        52.13032         0.33599
C         55.11630        54.28081         0.74456
C         53.83706        54.99564         0.68893
C         55.09738        57.12010         0.38373
C         53.86368        56.43369         0.61396
C         55.09679        58.53682         0.27478
C         53.87426        59.26345         0.38992
C         55.12535        61.37075         0.02752
C         53.87724        60.69574         0.22233
C         56.25952        50.70884        -0.20690
C         57.51505        52.81741         0.07342
C         56.32994        52.08191         0.14410
C         57.54927        54.24535         0.17311
C         56.35185        54.98203         0.38622
C         57.53327        57.09382        -0.04461
C         56.32634        56.39249         0.24162
C         57.51433        58.50440        -0.18383
C         56.32351        59.22480        -0.00578
C         57.58236        61.36160        -0.19137
C         56.32346        60.67726        -0.08110
C         58.75679        54.96486        -0.05226
C         60.00255        57.09120        -0.26628
C         58.77158        56.35888        -0.14429
C         60.02707        58.46929        -0.41412
C         58.74221        59.20759        -0.70811
C         60.03590        61.33425        -0.34086
C         58.77906        60.67802        -0.35605
C         61.23631        59.20995        -0.39455
C         61.22978        60.60781        -0.39339
O         37.88363        45.79084         1.77523
O         48.75381        55.62490         2.43995
O         40.69474        50.10699         2.76648
O         40.62307        57.65290        -1.58511
O         40.47725        53.19755        -0.34845
O         42.97833        53.88593         2.56669
O         45.99885        39.18909         1.75408
O         42.72410        50.50893        -0.32875
O         44.49907        43.96170         2.43144
O         41.11757        56.22937         1.88465
O         43.42761        48.24604         2.43299
O         37.44502        56.74024        -2.07452
O         51.67844        48.58024        -1.78871
O         47.32956        41.50223         1.96674
O         36.36179        54.15170        -1.91015
O         55.23451        53.39121         1.91224
O         37.16431        54.03291         1.53319
O         44.69852        36.81108        -1.70622
O         50.95612        56.93920         2.47430
O         50.86405        50.37147         1.54652
O         33.91477        59.74555        -2.05834
H         33.60953        58.95659        -2.57319
O         45.04695        49.96617        -1.21616
H         44.09637        49.94182        -1.47978
O         34.19970        60.37662         1.56986
H         35.13367        60.17427         1.79331
O         49.62921        53.54263        -1.28522
H         49.32019        52.78538        -1.82848
O         36.96990        50.51812        -1.43340
H         36.28801        50.95588        -1.98744
O         32.72141        57.39263        -2.46169
H         32.97537        56.54728        -2.90994
O         33.98717        54.87640        -2.66402
H         34.91475        54.79774        -2.99871
O         51.60899        52.16170        -1.60255
H         51.54292        53.07603        -1.95534
O         38.56463        52.29304         2.74231
H         38.12171        53.15805         2.91022
O         58.61458        59.16835        -2.17811
H         57.81593        59.68747        -2.41279
O         49.55710        38.42729         0.51206
H         49.85704        38.99892         1.25063
O         50.05091        41.99132         1.93881
H         49.40407        42.12179         2.66687
O         41.11014        52.54771         3.19171
H         40.52925        51.83396         3.54875
O         33.06343        58.05001         1.12633
H         33.24574        58.86729         1.65625
O         46.13242        46.26473        -1.16716
H         46.88721        46.71269        -1.60683
O         50.86648        46.19754        -2.18485
H         51.28949        46.94551        -2.67014
O         48.03838        39.08941        -2.71408
H         47.57030        38.49124        -3.33177
O         42.91064        41.65146        -1.19628
H         42.15030        41.22965        -1.65114
H         29.49290        56.54508        -0.24145
H         28.23953        58.71383        -0.54977
H         30.38852        62.46646        -0.42077
H         28.25326        61.20409        -0.56767
H         31.88342        52.31225        -0.33144
H         30.74702        54.41348        -0.22172
H         32.84148        62.47828        -0.10823
H         34.30319        47.99630         0.00459
H         33.06228        50.12251        -0.13193
H         35.40200        62.50218        -0.07799
H         37.04375        43.69384        -0.71355
H         35.51161        46.08660        -0.56263
H         37.81465        62.52063        -0.33247
H         39.27126        39.46460         0.16809
H         38.05172        41.59697         0.02020
H         40.29925        62.53468        -0.29554
H         41.82359        35.14995         0.38507
H         40.49664        37.31148         0.35111
H         42.79153        62.55574        -0.12650
H         45.42189        31.96712        -0.25402
H         43.26618        33.02704         0.31938
H         45.28661        62.54822        -0.02378
H         47.37673        33.28045        -1.01698
H         48.32568        35.58859        -1.76050
H         47.75434        62.52435         0.06390
H         49.39427        37.69030        -1.92430
H         50.76792        39.88442        -1.66692
H         50.21081        62.50498         0.13385
H         52.22646        41.83469        -1.14721
H         53.49077        43.83801        -0.55357
H         52.66898        62.48469         0.07910
H         54.67942        45.93101        -0.57045
H         55.94456        48.05782        -0.55938
H         55.12640        62.46903        -0.03868
H         57.19173        50.17606        -0.44899
H         58.44423        52.29835        -0.20730
H         57.59391        62.45664        -0.07530
H         59.69764        54.40567        -0.16353
H         60.95090        56.53924        -0.17252
H         60.06686        62.42802        -0.22647
H         62.19175        58.67016        -0.31657
H         62.18663        61.14804        -0.36223
