         252
 CSIRO Nanostructure Databank - Neutral Graphene Oxide Data Set
C         31.48794        31.32294         2.18304
C         31.45813        32.60256         1.99786
C         30.87760        35.62241         1.60106
C         30.90723        36.85920         1.60008
C         30.91181        39.82961         2.29939
C         31.02863        40.95104         2.80908
C         33.12939        28.80592        -0.00947
C         32.32228        29.25593         0.85754
C         33.37303        31.38258         0.61130
C         32.31664        30.61283         1.23821
C         33.58035        32.85162         1.02831
C         32.24410        33.51810         1.36887
C         33.08446        35.74673         0.51280
C         31.85571        34.82345         0.75732
C         32.96646        37.19610         0.56823
C         31.85976        37.81159         1.12748
C         32.99030        40.06653         1.08344
C         31.64491        39.28679         1.09343
C         33.03206        41.40796         1.61679
C         32.06102        41.91285         2.54935
C         33.19686        43.98167         2.46312
C         32.26331        43.25471         2.92735
C         35.45601        27.34258        -1.29906
C         35.18472        28.75671        -1.61927
C         34.20300        29.40686        -0.66303
C         35.33144        31.62205        -0.92737
C         34.26875        30.79051        -0.30107
C         35.40442        33.07535        -0.63411
C         34.41240        33.69226         0.07543
C         35.37784        35.99358        -0.36130
C         34.26332        35.15400         0.08845
C         35.30843        37.36250        -0.33537
C         33.99567        38.07263        -0.10376
C         35.35118        40.19848         0.32301
C         34.10600        39.46573         0.49780
C         35.31075        41.67711         0.42762
C         34.08124        42.30197         1.09400
C         35.25799        44.49459         0.99547
C         34.22586        43.70240         1.57696
C         35.23621        45.86791         0.71232
C         37.73600        27.35145        -0.47669
C         36.42621        26.68508        -0.92673
C         37.74514        28.78416        -1.12523
C         36.57774        29.43277        -1.41614
C         37.82972        31.65648        -1.58995
C         36.53254        30.90800        -1.51558
C         37.76861        33.15587        -1.60730
C         36.41049        33.90666        -1.42814
C         37.74159        36.07521        -1.44325
C         36.66495        35.25035        -0.67024
C         37.77866        37.56268        -1.06273
C         36.49593        38.21913        -0.62607
C         37.68845        40.49409        -0.58056
C         36.52700        39.61143        -0.10285
C         37.76311        41.82875         0.16735
C         36.56989        42.46146         0.43468
C         37.51806        44.70535        -0.09752
C         36.48202        43.91024         0.51005
C         37.25012        46.05314        -0.44728
C         36.02737        46.57973         0.03819
C         40.09681        24.68782         0.09763
C         39.15058        25.12490        -0.61229
C         40.30204        27.32021        -0.79035
C         38.98886        26.55744        -0.94141
C         40.23925        28.81542        -0.74542
C         39.02650        29.50454        -1.03124
C         40.25403        31.63505        -0.93466
C         39.06353        30.91737        -1.17414
C         40.14263        33.11474        -0.57713
C         39.06031        33.88407        -1.31385
C         40.15136        36.02843        -0.34006
C         39.08372        35.37178        -1.21692
C         40.21154        37.53475        -0.48601
C         39.06228        38.23646        -0.71372
C         40.29485        40.43691        -0.30840
C         39.03051        39.73377        -0.67104
C         40.32321        41.85586         0.23752
C         39.00473        42.63094         0.20980
C         40.10345        44.87810        -0.78831
C         38.91272        44.14216        -0.07816
C         40.32766        46.33160        -0.33947
C         39.23903        47.21556        -0.56959
C         40.52578        48.94860         0.31582
C         39.42287        48.54630        -0.15909
C         42.47398        24.90289         1.13065
C         41.35167        25.25875         0.33693
C         42.55375        27.43388         0.23640
C         41.47371        26.64728        -0.14787
C         42.70879        28.77845        -0.37632
C         41.44298        29.53502        -0.60608
C         42.74020        31.68956        -0.52314
C         41.46286        30.94102        -0.69862
C         42.61626        33.08039        -0.10522
C         41.47484        33.84835        -0.58949
C         42.73982        36.04516        -0.01213
C         41.50979        35.34136        -0.49028
C         42.75594        37.40346         0.06119
C         41.47491        38.17414         0.00421
C         42.84272        40.43550         0.22151
C         41.51556        39.65828         0.12980
C         42.76842        41.74124        -0.56275
C         41.46578        42.54650        -0.49246
C         42.76050        44.71760        -0.83738
C         41.41218        44.01781        -0.80192
C         42.82858        45.94780         0.07424
C         41.58956        46.85836         0.04344
C         43.06071        48.69245         0.73884
C         41.72363        48.24790         0.41723
C         43.37557        25.61716         1.60287
C         44.88600        27.58651         1.18726
C         43.49206        27.10889         1.41985
C         45.28642        28.73715         0.19728
C         44.04229        29.47481        -0.32137
C         45.13435        31.69088         0.43161
C         44.06249        30.98600        -0.35389
C         44.83075        32.91154         0.95011
C         43.64973        33.78858         0.69326
C         45.31518        35.88577         0.19104
C         43.98267        35.19546         0.10260
C         45.33619        37.39128         0.23554
C         44.03696        38.16250         0.26333
C         45.27687        40.20745        -0.39636
C         44.07519        39.60204        -0.11476
C         45.38643        41.64095        -0.93319
C         44.04231        42.40297        -1.00084
C         45.43778        44.57405        -0.89093
C         44.04304        43.92717        -1.04025
C         45.32037        46.04895        -0.46541
C         44.17165        46.68154        -0.11074
C         44.02783        48.02618         0.31394
C         47.26970        27.56912         1.83269
C         46.04600        27.17377         1.75866
C         47.54252        28.90333         1.39029
C         46.40215        29.61590         0.78496
C         47.69284        31.73103         0.89580
C         46.41050        31.00173         0.73461
C         47.85102        33.09880         0.95478
C         46.73735        34.01452         1.12259
C         47.82753        35.81750        -0.19236
C         46.62588        35.24047         0.53902
C         47.83973        37.34996        -0.17158
C         46.59334        38.08628        -0.15700
C         47.77559        40.23204        -0.58657
C         46.52742        39.46262        -0.38716
C         47.72786        41.67303        -0.19370
C         46.53879        42.37198        -0.26547
C         47.63259        44.45970         0.41200
C         46.50270        43.80350        -0.08674
C         47.61825        45.89403         0.23723
C         46.63382        46.52683        -0.18062
C         50.01872        29.11270         1.94737
C         48.77290        29.53601         1.46503
C         50.27750        31.56715         0.90468
C         48.93814        30.86331         0.69332
C         50.31465        32.96635         0.30185
C         49.18457        33.80647         0.92858
C         50.31560        35.88437         0.21780
C         49.12605        35.20519         0.31039
C         50.32564        37.32970        -0.02907
C         49.06576        38.01693        -0.22018
C         50.33176        40.22805        -0.09355
C         49.09851        39.48233        -0.43769
C         50.28311        41.70279         0.00599
C         48.93544        42.28737         0.37242
C         50.15746        44.34659         0.91282
C         48.81687        43.74556         0.86860
C         51.18170        29.58307         1.88083
C         52.66374        31.65888         1.28169
C         51.42139        30.91482         1.37762
C         52.62323        32.86582         0.94754
C         51.61428        33.77056         0.56073
C         52.68065        36.04794         0.52654
C         51.58157        35.13702         0.48447
C         52.66935        37.27533         0.33609
C         51.51762        38.08355         0.06617
C         52.63602        40.39037         0.27264
C         51.51593        39.51382         0.06765
C         52.70763        41.61012         0.50130
C         51.60757        42.53273         0.24936
C         51.26704        43.79599         0.90833
O         43.75352        31.53113        -1.65822
O         36.95637        38.28906        -2.03714
O         45.67724        33.50903         1.90036
O         39.52648        34.70369        -2.42354
O         37.91469        32.40989        -2.85176
O         41.79805        34.68951        -1.76525
O         34.23885        42.25155        -0.36673
O         48.56429        39.90014        -1.75843
O         44.81991        35.30296        -1.08566
O         37.84119        27.55544         0.83265
O         48.71282        42.64347         1.79037
O         41.25131        38.86049         1.32390
O         44.76476        37.86627         1.51236
O         41.18464        43.01778        -1.83334
O         35.48642        31.42098        -2.39547
O         43.20195        41.68607        -1.94323
O         39.11260        43.64735         1.27939
O         39.92343        40.31797        -1.69446
O         39.71255        26.88701        -2.10480
O         51.02000        42.42677        -1.04643
O         43.38345        44.66482        -2.13780
O         43.59533        28.85611        -1.56472
O         38.08943        46.81420        -1.21590
O         33.38557        38.28235        -1.50012
O         45.80149        41.48661        -2.31302
H         45.95424        42.38625        -2.68231
O         48.91347        30.48123        -0.72096
H         49.57291        29.76775        -0.86184
O         49.56880        33.98448         2.32329
H         48.86615        34.49214         2.78061
O         37.24660        34.91722         0.60667
H         36.57738        34.45478         1.15588
O         30.92852        39.60322        -0.08592
H         30.85762        40.57638        -0.17142
O         42.87507        45.35654         1.40197
H         42.93392        46.08255         2.06009
O         40.67393        41.71356         1.62538
H         40.43154        42.54905         2.08638
O         35.83134        34.15964        -2.70574
H         35.82664        33.30203        -3.19123
O         34.74513        28.91842        -2.96135
H         34.76513        29.87981        -3.17810
O         43.05829        40.80629         1.60112
H         42.65824        40.09991         2.15868
O         50.15847        32.87602        -1.11427
H         49.61643        32.07627        -1.32816
O         34.25641        39.14349        -2.24493
H         34.84875        38.51823        -2.73482
O         45.91858        28.11092        -0.92607
H         45.23538        28.01007        -1.63292
O         42.97447        27.77815         2.58067
H         42.13168        27.35256         2.84615
O         37.34449        40.91485        -1.92357
H         37.25872        40.09646        -2.47081
O         39.74460        35.81827         1.03795
H         40.30958        36.37153         1.61825
O         45.98238        44.53418        -2.23524
H         45.29041        44.88468        -2.84176
O         39.69049        44.99486        -2.15924
H         39.95405        44.17203        -2.63407
O         34.38450        32.81023         2.24471
H         33.88546        32.29243         2.91409
O         31.27244        34.55366        -0.51072
H         31.01015        35.40136        -0.92740
O         47.72146        35.41739        -1.58862
H         46.78168        35.49383        -1.86663
O         39.70601        33.08023         0.81269
H         40.48896        32.95388         1.39012
O         43.05734        34.09966         2.00450
H         43.80566        34.23188         2.62988
O         37.45106        36.05887        -2.83636
H         38.03633        35.38952        -3.26558
