         204
 CSIRO Nanostructure Databank - Neutral Graphene Oxide Data Set
C        -11.10180         0.67534        -0.27870
C         -9.89489         1.43071        -0.09217
C         -8.68364         0.70416         0.11163
C         -7.45281         1.47011         0.50655
C         -6.16341         0.71539         0.29546
C         -4.94774         1.39284         0.25893
C         -3.70619         0.69924         0.29716
C         -2.45874         1.43130         0.47922
C         -1.26135         0.74546         0.61420
C         -0.02068         1.41410         1.03168
C          1.26411         0.69391         0.91692
C          2.49366         1.44884         0.92851
C          3.73785         0.77292         0.88759
C          4.98382         1.44538         0.80551
C          6.22014         0.69242         0.79961
C          7.49166         1.43025         0.96721
C          8.76985         0.69660         0.69621
C         10.03925         1.46157         0.43093
C         11.17196         0.74162        -0.21761
C         -9.88749         2.84679        -0.14351
C         -8.66669         3.59123        -0.13359
C         -7.45673         2.88803         0.00992
C         -6.19640         3.59516        -0.16340
C         -4.90406         2.84677         0.00778
C         -3.68411         3.57876         0.33977
C         -2.49016         2.89120         0.56733
C         -1.26681         3.63192         0.66201
C         -0.01243         2.95006         0.99034
C          1.27117         3.61960         0.72980
C          2.48634         2.88689         0.78369
C          3.73238         3.57705         0.60401
C          4.98095         2.87923         0.68570
C          6.20009         3.61097         0.56806
C          7.49069         2.93920         0.82087
C          8.75084         3.61502         0.41412
C          9.94225         2.92440         0.30483
C         -8.63047         5.01481        -0.35926
C         -7.43450         5.75304        -0.33303
C         -6.18222         5.06974        -0.11318
C         -4.98468         5.74886         0.01797
C         -3.75145         5.06269         0.56222
C         -2.45754         5.74955         0.21982
C         -1.24037         5.02831         0.37651
C          0.01401         5.70951         0.25144
C          1.25434         4.99863         0.39599
C          2.49299         5.68874         0.21337
C          3.72571         4.98178         0.33594
C          4.95840         5.68254         0.14348
C          6.19757         4.98279         0.26492
C          7.45119         5.69405         0.07309
C          8.66939         5.01241         0.11951
C         -7.38537         7.17247        -0.49093
C         -6.17284         7.86227        -0.46443
C         -4.93880         7.16406        -0.19973
C         -3.70157         7.84487        -0.22984
C         -2.45541         7.12760        -0.05957
C         -1.21062         7.81300        -0.19929
C          0.01789         7.10339        -0.04759
C          1.25972         7.79347        -0.20475
C          2.49023         7.08644        -0.08310
C          3.72626         7.77844        -0.25631
C          4.95332         7.07626        -0.14522
C          6.20231         7.77666        -0.32347
C          7.40697         7.09053        -0.21854
C         -6.10779         9.28787        -0.68393
C         -4.91488         9.94852        -0.70377
C         -3.66342         9.25298        -0.51186
C         -2.43971         9.91271        -0.62118
C         -1.19769         9.22012        -0.48154
C          0.03430         9.88574        -0.62126
C          1.26310         9.19626        -0.49643
C          2.50796         9.86758        -0.65810
C          3.71925         9.18642        -0.54549
C          4.98314         9.86182        -0.71645
C          6.16485         9.18973        -0.61184
C        -11.09304        -0.69935        -0.27332
C         -9.87929        -1.43658        -0.09592
C         -8.66483        -0.70058         0.09920
C         -7.42305        -1.42566         0.24506
C         -6.18685        -0.70696         0.31914
C         -4.95838        -1.42251         0.30237
C         -3.73479        -0.70515         0.27956
C         -2.48276        -1.44285         0.11641
C         -1.18179        -0.67943         0.27096
C          0.03606        -1.44543         0.59235
C          1.23587        -0.70872         0.83199
C          2.48007        -1.46904         0.99893
C          3.76323        -0.69092         1.02947
C          4.95601        -1.43447         0.48504
C          6.25529        -0.70412         0.68627
C          7.44424        -1.45501         0.41755
C          8.62521        -0.64674         0.05031
C          9.82254        -1.30610        -0.55157
C         11.10469        -0.55697        -0.56799
C         -9.84454        -2.85088        -0.11546
C         -8.64890        -3.56643         0.05356
C         -7.41174        -2.83689         0.24035
C         -6.17630        -3.54563         0.35370
C         -4.96198        -2.85911         0.33613
C         -3.69642        -3.58406         0.35163
C         -2.47860        -2.89658         0.30539
C         -1.22672        -3.58035         0.36971
C          0.01451        -2.84738         0.52526
C          1.26423        -3.59543         0.48450
C          2.52465        -2.90215         0.63833
C          3.73103        -3.60213         0.62233
C          5.01051        -2.87353         1.00823
C          6.25369        -3.58923         0.53551
C          7.45894        -2.86546         0.24670
C          8.62982        -3.50632        -0.39607
C          9.75173        -2.76156        -0.71341
C         -8.60817        -4.99530        -0.05675
C         -7.43493        -5.72309         0.09563
C         -6.19947        -5.02898         0.62177
C         -4.91484        -5.73550         0.26204
C         -3.69303        -5.01266         0.28511
C         -2.44749        -5.69913         0.17935
C         -1.23592        -4.98867         0.30835
C          0.03700        -5.78055         0.46421
C          1.27041        -4.95835         0.26367
C          2.51957        -5.62023        -0.25378
C          3.77075        -4.98496         0.27652
C          4.97216        -5.71392         0.29489
C          6.16529        -4.97525         0.61099
C          7.85888        -5.90485        -0.38642
C          8.60511        -4.87944        -0.91499
C         -7.37617        -7.13450        -0.08210
C         -6.16945        -7.84144        -0.04202
C         -4.91262        -7.12881         0.08331
C         -3.67453        -7.83917        -0.04570
C         -2.43838        -7.13470        -0.00970
C         -1.22429        -7.82556        -0.21110
C          0.03573        -7.02402        -0.42448
C          1.31870        -7.80576        -0.26563
C          2.51901        -7.12611        -0.14589
C          3.78339        -7.81439        -0.21244
C          5.01813        -7.11491        -0.11287
C          6.23129        -7.78685        -0.57351
C          7.45370        -7.17848        -0.90552
C         -6.11997        -9.26948        -0.21531
C         -4.93374        -9.94688        -0.28665
C         -3.66520        -9.25888        -0.22505
C         -2.44396        -9.93804        -0.33718
C         -1.20673        -9.23691        -0.34285
C          0.05034        -9.91748        -0.46290
C          1.27942        -9.24240        -0.39050
C          2.52892        -9.92127        -0.50602
C          3.73992        -9.23355        -0.46866
C          4.97781        -9.90530        -0.76895
C          6.13105        -9.19517        -0.89755
O          4.73125        -1.48464        -0.95388
H          5.55265        -1.80909        -1.38120
O          2.51040        -5.33734        -1.70525
H          1.62350        -5.63458        -2.03485
O         -6.29154        -5.14622         2.09476
H         -6.33985        -6.10351         2.30417
O          7.32488        -5.68388         0.90051
O         -1.71322        -1.00330        -1.06375
O         -5.41211         3.13132        -1.37184
O          9.74793         0.83810         1.75739
O          0.07900        -6.28007         1.83915
H          0.08301        -5.50735         2.44230
O          3.18331        -1.16561         2.28472
O         -0.00597        -6.53662        -1.80988
H         -0.11619        -7.31481        -2.39648
O          5.13901        -2.88592         2.45048
H          4.39200        -2.34992         2.81859
O          8.80623        -0.59851        -1.41412
O         -7.53956         1.61500         1.98959
H         -8.42770         1.98211         2.19026
O         -3.89528         5.21405         2.03719
H         -3.07576         4.86029         2.44651
O         -0.10357         2.20530         2.26238
O          7.54186         2.28771         2.14033
H         11.99319        -1.06964        -0.96751
H         12.12084         1.28997        -0.32606
H         10.83764         3.46828        -0.03483
H          9.59920         5.55973        -0.09738
H          8.35455         7.63139        -0.36196
H          7.11897         9.72051        -0.74590
H          4.97476        10.93961        -0.93620
H          2.50853        10.94509        -0.88125
H          0.04375        10.96408        -0.83972
H         -2.42303        10.99095        -0.84090
H         -4.88566        11.03242        -0.88969
H         -7.04686         9.83547        -0.85295
H         -8.32085         7.72658        -0.66181
H         -9.58192         5.54344        -0.52200
H        -10.83540         3.37858        -0.31387
H        -12.04619         1.21868        -0.42979
H        -12.03214        -1.25424        -0.41616
H        -10.78170        -3.40405        -0.28198
H         -9.53941        -5.52460        -0.31477
H         -8.30611        -7.67843        -0.31115
H         -7.07051        -9.81809        -0.29297
H         -4.93085       -11.03922        -0.41658
H         -2.44023       -11.03325        -0.44397
H          0.04798       -11.01251        -0.57179
H          2.53175       -11.00753        -0.68326
H          4.96056       -10.98609        -0.97133
H          7.05327        -9.70870        -1.20799
H          8.14313        -7.73926        -1.55694
H          9.17032        -5.05958        -1.84199
H         10.61954        -3.27247        -1.15862
