         286
 CSIRO Nanostructure Databank - Neutral Graphene Oxide Data Set
C        -11.19394         0.54453        -0.42877
C        -10.04685         1.46556        -0.06301
C         -8.78406         0.67101         0.28802
C         -7.45862         1.28470        -0.09692
C         -6.18938         0.54310         0.12854
C         -4.81733         1.24671         0.11082
C         -3.93170         0.66096         1.22923
C         -2.57018         1.41624         1.33976
C         -1.24471         0.66295         1.42533
C          0.02733         1.41498         1.13741
C          1.34801         0.71645         1.30009
C          2.51596         1.42371         1.19013
C          3.84067         0.67382         1.02419
C          4.88574         1.34525         0.11153
C          6.26103         0.76550         0.25218
C          7.42717         1.53909         0.07152
C          8.62973         0.85408        -0.21267
C          9.88015         1.64947        -0.52602
C         10.79376         0.89649        -1.46651
C         -9.80257         2.52628        -1.14435
C         -8.56764         3.38610        -0.91441
C         -7.36337         2.73361        -0.41244
C         -6.14832         3.38078        -0.36277
C         -4.92872         2.76623         0.17268
C         -3.83325         3.50988         0.53225
C         -2.58491         2.89168         1.07702
C         -1.30272         3.66195         1.04515
C         -0.01167         2.91550         1.12142
C          1.21108         3.58721         1.74450
C          2.50663         2.93682         1.21379
C          3.78115         3.72913         1.32050
C          5.16113         3.13534         1.64852
C          6.45146         3.77861         1.07245
C          7.38700         3.01715         0.11956
C          8.39278         3.73349        -0.45625
C          9.54397         3.02736        -1.14233
C         -8.54525         4.68749        -1.30768
C         -7.25004         5.39072        -1.64384
C         -6.02381         4.74213        -0.94581
C         -4.84744         5.57149        -0.54387
C         -3.83665         4.98889         0.40498
C         -2.55653         5.75634         0.61236
C         -1.29854         5.01149         0.91318
C         -0.11378         5.89533         1.26711
C          1.18291         5.13235         1.66167
C          2.46964         5.90573         1.64863
C          3.81900         5.17614         1.83108
C          4.94187         5.90478         1.07668
C          6.15145         5.18841         0.58561
C          7.34580         5.98317         0.18928
C          8.39191         5.24443        -0.61679
C         -7.22926         6.88638        -1.47755
C         -5.92275         7.54581        -1.79662
C         -4.95465         7.09167        -0.59877
C         -3.58052         7.76560        -0.68982
C         -2.40141         7.10625        -0.05255
C         -1.03369         7.56600        -0.48111
C          0.15528         6.96899         0.21103
C          1.39112         7.78424         0.39635
C          2.46899         7.29183         1.05980
C          3.70606         8.10811         1.27125
C          5.01885         7.38782         1.30859
C          6.36592         8.10597         1.15183
C          7.39087         7.31569         0.36565
C         -5.82772         9.06166        -1.82379
C         -4.62013         9.65082        -1.85979
C         -3.34422         8.82615        -1.77644
C         -2.05852         9.58118        -1.50701
C         -0.95937         8.94101        -1.05566
C          0.43002         9.50624        -1.22421
C          1.30821         9.28730         0.02096
C          2.69542         9.79150        -0.19849
C          3.66398         9.61066         0.92697
C          5.02425        10.16402         0.55280
C          6.18510         9.50261         0.59429
C        -11.22707        -0.77750        -0.22216
C        -10.10373        -1.62760         0.34615
C         -8.83009        -0.80919         0.55254
C         -7.53739        -1.59384         0.69453
C         -6.23687        -0.85984         0.68321
C         -4.94633        -1.57557         0.34190
C         -3.77952        -0.85168         1.04196
C         -2.48059        -1.58627         1.15877
C         -1.20238        -0.84011         1.48398
C          0.11071        -1.64771         1.61432
C          1.38039        -0.77772         1.50258
C          2.65036        -1.53358         1.21241
C          3.63949        -0.71528         0.35353
C          5.00955        -1.38237         0.11625
C          6.30227        -0.63905         0.19234
C          7.51433        -1.32393        -0.05407
C          8.68030        -0.55601        -0.24915
C         10.04772        -1.20729        -0.41509
C         10.87804        -0.43558        -1.41509
C         -9.88084        -2.84571        -0.58254
C         -8.70066        -3.73910        -0.23050
C         -7.53929        -3.08785         0.43943
C         -6.22865        -3.80857         0.38209
C         -4.93598        -3.07927         0.60581
C         -3.62169        -3.73462         0.32272
C         -2.39328        -2.78869         0.20431
C         -1.05386        -3.54156         0.24828
C          0.18907        -2.91144         0.75748
C          1.40005        -3.78184         0.87980
C          2.70907        -3.08312         1.21877
C          3.77621        -3.59518         0.27450
C          5.07275        -2.86610         0.11632
C          6.38846        -3.56996         0.46518
C          7.53853        -2.83200        -0.31519
C          8.91904        -3.46110        -0.02477
C         10.04113        -2.71265        -0.76384
C         -8.65236        -5.04494        -0.59919
C         -7.36860        -5.84794        -0.79105
C         -6.13609        -5.20827        -0.15515
C         -4.83486        -5.84004        -0.55966
C         -3.57578        -4.99766        -0.52500
C         -2.18341        -5.54530        -0.73175
C         -1.22301        -5.05289         0.35814
C          0.09080        -5.89184         0.53577
C          1.37517        -5.08237         0.47598
C          2.63780        -5.92118         0.26885
C          3.79356        -5.02203        -0.11404
C          5.09849        -5.57631        -0.62634
C          6.37690        -5.07735         0.05101
C          7.69896        -5.59770        -0.45557
C          8.87089        -4.94140        -0.35588
C         -7.33372        -7.33569        -0.49132
C         -6.14326        -7.98828        -0.66542
C         -4.94980        -7.24237        -1.10722
C         -3.94733        -7.94324        -1.69294
C         -2.02187        -6.89601        -1.26431
C         -1.06609        -7.76494        -0.83033
C          0.21744        -7.03525        -0.49298
C          1.45582        -7.90749        -0.21652
C          2.63423        -7.10692        -0.68172
C          3.80605        -7.75078        -0.98528
C          5.09399        -7.00239        -1.07365
C          6.43752        -7.72526        -0.97832
C          7.32764        -6.96554         0.06360
C         -5.94007        -9.42979        -0.48639
C         -4.82809       -10.08455        -0.89004
C         -3.74711        -9.43242        -1.72919
C         -2.29945        -9.87994        -1.40243
C         -1.12725        -9.19512        -1.13239
C          0.16120        -9.89097        -1.10308
C          1.36289        -9.29693        -0.78434
C          2.64663        -9.94079        -0.96259
C          3.82052        -9.21264        -1.02680
C          5.11582        -9.87035        -0.91441
C          6.28217        -9.20712        -0.75869
O          0.10382         2.16566        -0.13047
O          4.63142         2.02568        -0.86494
O          0.03834        -6.43739         1.87000
H          0.93891        -6.43428         2.26690
O         -3.40911        -1.55475         2.26487
O         -0.18411         6.56814        -1.15546
O         -2.68966         2.35314         2.45357
O          5.01377        -2.13694        -1.15733
O         -4.17136        -3.73448         1.65355
O          1.69751         5.75155         2.88417
O          1.84992        -7.98406         1.22293
O          4.13722         5.12886         3.22371
H          4.09790         6.05095         3.56650
O          7.34052        -3.05109        -1.73120
H          6.48079        -2.63386        -1.99011
O          3.26504        -3.99603        -1.02459
O          5.02834         5.45492        -0.31589
O          0.55346        -6.32059        -1.72656
H          0.57459        -6.96128        -2.46847
O          4.34948         7.79932         2.55828
O          3.10167         3.60657         0.05892
O         -6.80362         0.53485        -1.20565
O          5.12012        -5.89346        -2.04518
O          7.27705         3.98899         2.24902
O         -2.89570        -7.23497        -2.29305
O         -5.38752        -5.99374         0.80741
O         -2.40391        -2.14497        -1.09936
H         -2.18491        -2.83674        -1.77076
O        -10.43383         2.20409         1.11619
H        -10.28355         1.61063         1.88706
O         -8.91735         0.16199         1.65242
O          5.27588         2.52895         2.70115
H          7.01188         3.30319         2.90881
O          8.14438         5.51706        -2.01207
H          7.21432         5.27676        -2.20794
O          4.48787         0.40637         2.27225
H          3.81581         0.06914         2.90917
O          6.50977        -6.21999         1.07783
O         -4.67004         0.86360         2.43429
H         -4.22599         0.36189         3.15219
O         -9.62370         1.84329        -2.38862
H         -9.45440         2.50502        -3.08950
O         10.72767         3.83221        -1.10389
H         10.94837         3.99192        -0.16270
O         -3.59738         5.72915         1.64130
O         -7.13195        -5.70721        -2.23850
H         -7.75840        -6.29845        -2.70666
O          0.08784        -2.20735         2.94488
H         -0.22637        -1.50093         3.55504
O         -0.13007        -2.90041        -0.67829
O         -0.55561         6.64712         2.41371
H         -0.70397         6.03290         3.16236
O         -6.84307        -1.19493         1.93388
O          2.37020        -1.06430         2.56258
O         -4.82665         4.85695        -1.81108
O         -1.26127        -0.03960         2.70927
O         -2.80752        -4.65551        -1.72433
O         -3.11726         8.19160         0.62704
O          2.99744        -0.52920        -0.90918
H          3.35512        -1.19779        -1.53927
O          2.74830        -6.75387         1.50804
O         -7.10367         5.06594        -3.07576
H         -6.75510         4.15142        -3.14077
O          1.04373         8.85562        -2.34575
H          0.77249         7.90815        -2.33043
O         -7.06133        -3.83500         1.59541
O         10.60220         1.82190         0.73341
H         11.52468         2.06974         0.51107
O          3.19086        10.29422         2.11743
H          3.64795         9.88923         2.88638
O         -1.99568        -5.19322         1.56613
H         -1.44567        -5.65188         2.24745
O         -5.41970         7.09440        -3.05501
H         -5.85507         6.23459        -3.29084
O         -4.16369         0.97425        -1.14349
H         -4.87304         0.81257        -1.80854
O          6.56074        -3.41641         1.86895
H          7.50637        -3.62285         2.07990
O        -10.50735        -2.15039         1.62515
H        -10.28589        -1.47840         2.30566
O          9.20357        -3.37264         1.39590
H          9.74949        -2.56019         1.55230
O         10.68419        -1.09094         0.89651
H         10.69983        -0.12694         1.12484
O         -4.91398        -1.47810        -1.10056
H         -3.97862        -1.59246        -1.41400
O          9.96069        -2.90050        -2.17339
H          9.00470        -2.94009        -2.42060
O          6.93378         8.26117         2.47877
H          6.19252         8.48776         3.08345
O         -5.58955         7.51532         0.60843
H         -4.86841         7.74865         1.24413
O          1.12800         3.24145         3.14373
H          1.59019         3.95228         3.64900
O         -3.95857        -9.89959        -3.09720
H         -3.39051        -9.35055        -3.67867
O          0.65794         9.92534         1.13006
H          1.35398        10.15174         1.79378
O          3.09313        -3.50176         2.53872
H          2.59352        -2.94234         3.17794
O         -9.62479        -2.31316        -1.88914
H         -9.42178        -3.05145        -2.49919
O          7.12419        -7.59749        -2.24565
H          6.76338        -6.79096        -2.68356
O         -3.05300         8.19141        -3.03887
H         -3.88120         7.76392        -3.37575
H         11.55158        -0.99374        -2.08149
H         11.40857         1.48422        -2.16565
H          9.28898         2.87837        -2.22469
H          9.40989         5.64852        -0.38873
H          8.27098         7.87809         0.01596
H          7.11008        10.02450         0.30200
H          5.01903        11.20862         0.20478
H          3.09422         9.68100        -1.22073
H          0.37793        10.60048        -1.44574
H         -1.95652        10.59025        -1.93728
H         -4.53942        10.74740        -1.92406
H         -6.74929         9.66188        -1.86455
H         -7.78585         7.28764        -0.61457
H         -9.46718         5.14708        -1.69790
H        -10.70900         3.19212        -1.20552
H        -12.09180         1.04054        -0.83134
H        -12.14744        -1.32881        -0.47443
H        -10.82546        -3.45941        -0.60180
H         -9.55023        -5.47988        -1.07389
H         -8.24013        -7.87410        -0.17795
H         -6.73326        -9.98872         0.03427
H         -4.74297       -11.16735        -0.71288
H         -2.18029       -10.96652        -1.55907
H          0.17967       -10.92826        -1.47469
H          2.68615       -11.03725        -1.05271
H          5.10667       -10.96819        -0.83029
H          7.21103        -9.77823        -0.60820
H          8.11859        -7.59152         0.53437
H          9.82202        -5.49515        -0.38265
H         11.02489        -3.13164        -0.42430
