         324
 CSIRO Nanostructure Databank - Neutral Graphene Oxide Data Set
C          1.82524         2.51407         3.35050
C          1.66700         3.81589         2.86411
C          2.97401         1.78149         3.07078
C          2.65877         4.42391         2.06539
C          1.36466         6.59887         1.83221
C          1.26580         7.91226         1.38261
C          2.52450         5.82061         1.60858
C          2.35314         8.56155         0.75309
C          1.02316        10.54381         0.02721
C          0.94663        11.76316        -0.63776
C          2.27742         9.93503         0.22134
C          2.11706        12.46053        -0.95538
C          1.05210        15.53056        -0.82040
C          1.17495        16.81448        -0.25640
C          2.17919        14.75118        -1.04821
C          2.43791        17.33446        -0.01905
C          2.59234        18.73701         0.32388
C          4.00014         2.35009         2.27842
C          3.82424         3.67020         1.77513
C          5.18675         1.60476         1.96980
C          4.86609         4.21016         0.88573
C          3.60650         6.45870         0.96209
C          3.54177         7.82305         0.60790
C          4.74913         5.65518         0.46996
C          4.74132         8.47099         0.02687
C          3.44545        10.65068        -0.16238
C          3.40714        12.00757        -0.59737
C          4.71817         9.93183        -0.29022
C          4.64631        12.81323        -0.69019
C          3.50782        15.13391        -0.69819
C          3.61971        16.53476        -0.29224
C          4.66567        14.27373        -0.73249
C          4.84772        17.17251        -0.29617
C          3.80216        19.32249         0.44477
C          5.06115        18.50861         0.36939
C          6.27375         2.15361         1.27621
C          6.18836         3.53575         0.81279
C          7.46451         1.41315         1.04615
C          7.28894         4.16447         0.29201
C          5.98989         6.36747         0.03879
C          6.06718         7.84703         0.45326
C          7.26050         5.59867        -0.08669
C          7.25078         8.55421        -0.17757
C          5.96822        10.69861        -0.42598
C          5.88140        12.11173        -0.57772
C          7.19304         9.96838        -0.47521
C          7.19933        12.84305        -0.43454
C          5.95902        14.95795        -0.78126
C          5.98313        16.44169        -0.86777
C          7.17512        14.29550        -0.82615
C          7.28886        17.18537        -0.98672
C          6.25330        19.27372        -0.13493
C          7.36235        18.62823        -0.62140
C          8.61853         1.99139         0.47316
C          8.55527         3.42512         0.08436
C          9.81042         1.27139         0.29558
C          9.86704         4.17788        -0.04013
C          8.52105         6.40132         0.04185
C          8.41987         7.84411        -0.35067
C          9.84209         5.69960         0.09014
C          9.55418         8.48039        -1.02590
C          8.41723        10.63197        -0.83128
C          8.36124        12.08407        -1.04147
C          9.60881         9.94932        -1.08563
C          9.67956        12.81827        -1.15178
C          8.45505        14.98783        -0.92635
C          8.52902        16.40564        -0.94389
C          9.67769        14.26880        -0.92434
C          9.76648        17.08723        -0.91637
C          8.61838        19.28136        -0.80618
C          9.81066        18.54830        -0.95021
C         11.06719         1.90539        -0.00842
C         11.10344         3.36101         0.11210
C         12.27263         1.21509        -0.10140
C         12.32429         3.92364         0.40054
C         11.02159         6.51426        -0.31188
C         10.88701         7.70979        -1.11380
C         12.30981         6.10275         0.07941
C         12.14418         8.48764        -1.38470
C         10.88986        10.64641        -1.12922
C         10.92218        12.05488        -0.99969
C         12.13561         9.94646        -1.13572
C         12.12311        12.73456        -0.63580
C         10.92561        14.92653        -0.78929
C         10.97178        16.35944        -0.82455
C         12.10655        14.16754        -0.52429
C         12.24447        17.03748        -0.83248
C         11.05957        19.19618        -1.02950
C         12.29217        18.48695        -0.99659
C         13.53264         1.94497        -0.49423
C         13.59732         3.35857         0.08695
C         14.85233         1.23596        -0.36183
C         14.72558         4.13484        -0.10570
C         13.46857         6.42663        -0.60311
C         13.43949         7.74267        -1.29563
C         14.67821         5.52424        -0.75869
C         14.67199         8.51535        -1.04772
C         13.34165        10.59829        -0.76310
C         13.31902        11.98172        -0.43409
C         14.60442         9.84141        -0.72592
C         14.52107        12.64717         0.13681
C         13.29754        14.91197        -0.10905
C         13.39165        16.32605        -0.51399
C         14.59212        14.14739         0.19071
C         14.72482        16.92498        -0.61802
C         13.51416        19.16274        -0.95484
C         14.79066        18.47242        -0.89052
C         16.03254         1.94434        -0.34567
C         16.06949         3.43307        -0.00779
C         17.29562         1.28421        -0.49608
C         17.23599         4.16068        -0.64380
C         15.97107         6.31024        -0.71165
C         15.92615         7.71224        -1.34355
C         17.16463         5.60222        -0.79795
C         17.21641         8.51604        -1.15042
C         15.83591        10.46371        -0.16819
C         15.82600        11.90659         0.22478
C         17.15148         9.78294        -0.35280
C         17.10736        12.64664         0.23170
C         15.88484        14.81278         0.08300
C         15.88100        16.32760         0.18460
C         17.09772        14.08147         0.22832
C         17.18525        16.97701        -0.21861
C         16.03447        19.12592        -0.52520
C         17.23833        18.38529        -0.39894
C         18.48302         2.00353        -0.70110
C         18.41233         3.44916        -0.87144
C         19.74705         1.37444        -0.83574
C         19.62136         4.13093        -1.28517
C         18.36418         6.28043        -1.25278
C         18.50171         7.77243        -1.24005
C         19.42585         5.50743        -1.63340
C         19.73934         8.39359        -0.60587
C         18.39467        10.56431        -0.14417
C         18.33725        11.91290         0.19797
C         19.65539         9.81866        -0.03404
C         19.56340        12.56929         0.71375
C         18.33187        14.79309         0.33359
C         18.41086        16.19465        -0.12097
C         19.50517        14.12456         0.85019
C         19.71950        16.95986         0.00131
C         18.49369        19.08514        -0.33699
C         19.70457        18.43939        -0.06614
C         20.95343         2.09902        -0.98471
C         20.89157         3.53562        -1.18856
C         22.20129         1.40867        -1.00459
C         22.16194         4.29844        -0.96212
C         21.31638         6.62791        -1.47202
C         21.10530         7.88427        -0.86303
C         22.33494         5.77077        -1.06971
C         22.22529         8.50468        -0.25329
C         20.91720        10.57199         0.16847
C         20.87426        11.93284         0.57460
C         22.13631         9.86473         0.16617
C         22.09780        12.68526         0.74805
C         20.78542        14.88121         1.07557
C         20.86165        16.33643         0.73998
C         22.08548        14.10952         1.30269
C         22.14803        17.04658         0.73648
C         20.93925        19.10220         0.07384
C         22.16188        18.41872         0.38625
C         23.45172         2.05922        -0.97400
C         23.45333         3.52101        -0.73598
C         24.68613         1.39268        -1.03936
C         24.74440         4.24900        -0.78215
C         23.51049         6.40225        -0.56490
C         23.48649         7.79897        -0.27333
C         24.74003         5.67967        -0.57274
C         24.70822         8.47090        -0.01675
C         23.36146        10.58048         0.54876
C         23.31452        12.05079         0.59651
C         24.69007         9.87818         0.43433
C         24.58211        12.82197         0.30448
C         23.31496        14.93202         0.91749
C         23.35234        16.37536         1.35401
C         24.58477        14.19123         0.95529
C         24.63639        17.08419         0.96429
C         23.38281        19.14867         0.46388
C         24.61779        18.49851         0.70740
C         25.93251         2.08261        -0.92622
C         25.92680         3.53349        -0.84988
C         27.16025         1.40225        -0.89003
C         27.22044         4.24489        -0.85593
C         25.93860         6.40954        -0.44835
C         25.92529         7.79077        -0.16787
C         27.23013         5.74283        -0.66216
C         27.21123         8.53536        -0.19903
C         25.92113        10.69783         0.31807
C         25.88407        12.04786         0.44731
C         27.20325        10.01012         0.02170
C         27.15965        12.80822         0.33321
C         25.87983        14.93383         1.04516
C         25.85615        16.41279         0.97576
C         27.14688        14.27984         0.58197
C         27.09945        17.10053         0.88977
C         25.84755        19.19602         0.63684
C         27.08599        18.53459         0.77871
C         28.41008         2.06886        -0.66981
C         28.44844         3.48450        -0.55847
C         29.63403         1.35787        -0.52238
C         29.63380         4.15632        -0.20972
C         28.44599         6.41724        -0.14716
C         28.46859         7.78094         0.02966
C         29.61608         5.58863         0.16423
C         29.69895         8.50990         0.29883
C         28.47103        10.70103         0.34568
C         28.45260        12.08742         0.46523
C         29.69262         9.94733         0.39197
C         29.66742        12.82925         0.64768
C         28.41301        14.99336         0.86697
C         28.34312        16.38453         0.99641
C         29.65766        14.26185         0.82102
C         29.57111        17.16737         1.21837
C         28.31389        19.25475         0.74309
C         29.55047        18.61539         0.92951
C         30.82266         2.02968        -0.28916
C         30.84965         3.43656        -0.10944
C         32.09427         4.16308         0.04083
C         30.93964         6.31926         0.41999
C         30.92635         7.80641         0.36250
C         32.15491         5.51353         0.19257
C         32.12846         8.54315         0.45437
C         30.91536        10.66457         0.52423
C         30.90168        12.11342         0.63562
C         32.12548         9.92501         0.53286
C         32.10691        12.85192         0.72554
C         30.89167        14.95543         0.91602
C         30.92018        16.42322         1.14656
C         32.09809        14.23252         0.84004
C         32.07825        17.23388         0.76479
C         30.77417        19.30325         0.83274
C         32.00033        18.60827         0.72458
O          6.44606        16.96537        -2.17665
O          6.17613         7.90311         1.83959
O         27.24732         9.45693        -1.35868
O         19.38443        16.33086        -1.26691
O         22.63178         3.91498         0.40498
O          4.33271         4.59690        -0.43945
O          9.14773         3.72358        -1.23080
O         12.81179         7.96796        -2.60083
O         19.54666         8.61886         0.82256
O          9.95282         7.71825        -2.22224
O         20.40225         6.14174        -2.40198
O         13.73914        14.68201         1.29471
O          4.62626         8.85465        -1.35505
O          6.48038         5.99936        -1.26782
O         27.38861         5.16574        -2.00825
O         20.53125        15.87410         2.12329
O         25.31609        14.32353         2.25845
O         16.39882         9.60136         0.89571
O         27.10849        13.77112        -0.81129
O         30.12089         5.81078         1.52738
O          8.84230        12.48720        -2.34026
O         14.98023        12.09378         1.41998
O         30.30880        16.80869         2.42533
O          9.21009         6.18491         1.32932
O         18.01175         8.56718        -2.38420
O         19.28492        13.22977         1.98058
O         12.35474         5.14019         1.08650
O          1.96192        13.58010        -1.77396
O         15.02239        17.41725        -1.92121
O         24.04906        10.01457         1.75429
O         13.37727         2.21697        -1.93676
H         13.86989         3.04365        -2.15812
O         14.55175         5.08587        -2.17848
H         14.80698         5.86716        -2.73827
O         16.37500         3.47529         1.43360
H         15.64530         3.02309         1.90815
O         15.79375         7.43583        -2.77531
H         16.66165         7.67605        -3.18975
O         15.63693        16.66957         1.58529
H         14.94981        16.03624         1.91415
O          7.50134        12.83672         1.00685
H          6.73440        13.21899         1.48330
O         22.22023        13.92841         2.73418
H         21.96646        14.79022         3.14730
O         24.48737        13.08961        -1.13733
H         25.38147        13.40688        -1.42694
O         23.27294        16.46978         2.82551
H         24.01451        15.92234         3.17271
O          5.40728        18.16258         1.77818
H          4.57332        17.90462         2.22675
H          1.03122         2.06891         3.96615
H          0.75073         4.36524         3.11922
H          3.09146         0.76009         3.45980
H          0.49348         6.15579         2.33443
H          0.32213         8.45133         1.54641
H          0.09878        10.01564         0.29479
H         -0.02351        12.18342        -0.93201
H          0.07045        15.15171        -1.13176
H          0.28208        17.43297        -0.09019
H          1.67396        19.33376         0.43267
H          5.25631         0.56771         2.33244
H          3.88723        20.39117         0.69050
H          7.50214         0.36181         1.37128
H          6.31200        20.34570         0.10935
H          9.80564         0.18638         0.48428
H          8.66996        20.37598        -0.70398
H         12.28647         0.11794        -0.01881
H         11.08505        20.29509        -1.07675
H         14.88601         0.14520        -0.51826
H         13.51465        20.25779        -0.84906
H         17.31728         0.18388        -0.53473
H         16.05192        20.21921        -0.40905
H         19.80260         0.27979        -0.73335
H         18.48224        20.18004        -0.44165
H         22.18039         0.30816        -1.02329
H         20.97120        20.19629        -0.03781
H         24.69827         0.29774        -1.15013
H         23.37450        20.22869         0.25647
H         27.16212         0.30456        -0.96820
H         25.83744        20.28386         0.47153
H         29.63123         0.26218        -0.61410
H         28.29004        20.34155         0.57325
H         31.76365         1.46527        -0.21544
H         33.02915         3.59117        -0.06023
H         33.13368         6.01438         0.17366
H         33.08964         8.01254         0.49579
H         33.08969        10.44108         0.62698
H         33.07589        12.33687         0.71124
H         33.05648        14.76342         0.91955
H         33.01686        16.73801         0.48027
H         30.76402        20.39466         0.70075
H         32.90866        19.18699         0.50281
