         234
 CSIRO Nanostructure Databank - Neutral Graphene Oxide Data Set
C          1.57109         3.37310         2.90185
C          1.45507         4.44117         2.00359
C          2.82139         2.87804         3.23952
C          2.59285         5.03604         1.42296
C          1.29336         6.80300         0.22496
C          1.23010         8.03909        -0.45903
C          2.49231         6.22460         0.59992
C          2.38487         8.71414        -0.87573
C          1.13230        10.59261        -1.92672
C          1.11420        11.89392        -2.45585
C          2.34086         9.99421        -1.56166
C          2.27629        12.64802        -2.46395
C          1.04681        15.52420        -1.56587
C          1.04604        16.43446        -0.52944
C          2.25473        14.87765        -1.91756
C          2.26301        16.78498         0.10791
C          2.27518        17.79016         1.12158
C          3.98673         3.41978         2.63509
C          3.88338         4.49883         1.71111
C          5.26906         2.90980         2.95023
C          5.06294         4.96704         1.00333
C          3.76860         6.98764         0.36247
C          3.65668         8.08885        -0.65696
C          4.96710         6.09592         0.19415
C          4.81043         8.63394        -1.19832
C          3.58184        10.69143        -1.80156
C          3.55461        12.11765        -2.08591
C          4.78914         9.97674        -1.69390
C          4.72348        12.90823        -1.95683
C          3.46703        15.12023        -1.27797
C          3.49213        16.17804        -0.30581
C          4.72099        14.38836        -1.68244
C          4.71298        16.71582         0.19936
C          3.45461        18.22305         1.66992
C          4.70620        17.71792         1.19760
C          6.41272         3.33381         2.26137
C          6.33473         4.29280         1.18675
C          7.67605         2.79947         2.63888
C          7.49046         4.60136         0.42003
C          6.02840         6.41150        -0.76637
C          6.00871         7.76046        -1.53172
C          7.33670         5.61066        -0.68791
C          7.31723         8.52750        -1.39671
C          6.05651        10.64158        -1.98727
C          6.00846        12.20685        -2.07441
C          7.32153         9.95515        -1.60096
C          7.28870        12.84458        -1.62632
C          6.01195        15.05588        -1.27305
C          5.99066        16.30135        -0.40934
C          7.29087        14.27147        -1.17946
C          7.26083        16.76986         0.28329
C          5.92103        18.20695         1.77794
C          7.16239        17.70648         1.41472
C          8.79977         3.07647         1.89640
C          8.70711         3.89288         0.72284
C         10.08565         2.36699         2.26150
C          9.89208         3.91379        -0.09019
C          8.49498         6.34648        -1.44795
C          8.49460         7.84098        -1.22143
C          9.84283         5.72029        -1.28004
C          9.78072         8.56843        -1.11057
C          8.53599        10.63926        -1.69498
C          8.53424        12.06980        -1.91199
C          9.81244         9.96749        -1.57681
C          9.71550        12.66029        -2.24580
C          8.55107        15.02804        -0.89202
C          8.53289        16.03831         0.12215
C          9.76761        14.68382        -1.43818
C          9.70177        16.40774         0.78731
C          8.38738        18.13135         1.99450
C          9.62890        17.55625         1.69752
C         11.32419         2.93570         1.61255
C         11.17833         3.65140         0.38060
C         12.56434         2.56916         2.09279
C         12.38199         4.16060        -0.33855
C         11.05268         6.31630        -1.12473
C         11.10055         7.80560        -1.07293
C         12.31359         5.51479        -1.05194
C         12.30771         8.50929        -1.51925
C         11.03392        10.58675        -1.86264
C         11.02427        12.01331        -2.25439
C         12.29211         9.88215        -1.74182
C         12.28000        12.88150        -2.00019
C         11.01952        14.84527        -0.75594
C         10.93904        15.65791         0.48286
C         12.17393        14.14443        -1.15879
C         11.96644        15.57575         1.40491
C         10.79224        18.23092         2.21679
C         11.97938        17.59144         2.53296
C         13.77460         2.88479         1.40883
C         13.74874         3.57801         0.05663
C         14.99057         2.42980         1.86796
C         14.91500         4.55577        -0.04152
C         13.59625         6.26952        -1.31706
C         13.56483         7.74379        -1.65390
C         14.85838         5.73663        -0.74156
C         14.83500         8.52009        -1.73225
C         13.54606        10.61965        -1.91328
C         13.55172        12.06573        -1.92256
C         14.76413         9.93417        -1.98534
C         14.78057        12.70201        -2.04803
C         13.36204        14.31611        -0.26963
C         13.25508        14.92091         1.11432
C         14.70047        14.39955        -0.84845
C         14.51003        15.39273         1.74575
C         13.23207        18.19525         2.78339
C         14.44481        17.48628         2.92172
C         16.22155         2.86398         1.26059
C         16.18442         4.03422         0.44114
C         17.46113         2.28471         1.58945
C         17.40138         4.64729         0.08638
C         16.05607         6.60093        -0.81851
C         16.03939         7.87171        -1.57270
C         17.38817         6.02353        -0.42409
C         17.33303         8.40942        -2.15479
C         16.05141        10.66092        -2.16973
C         16.06007        12.09751        -1.83701
C         17.35696         9.94648        -2.23070
C         17.23503        12.74566        -1.40963
C         15.85293        14.49551        -0.12801
C         15.75907        15.05398         1.21287
C         17.18138        14.18300        -0.81990
C         16.98086        15.50112         1.82077
C         15.68943        18.11463         3.03473
C         16.93055        17.41726         3.01514
C         18.66302         2.81031         1.09092
C         18.63805         4.01604         0.33965
C         19.94817         2.20660         1.41190
C         19.86166         4.63186        -0.12932
C         18.64460         6.62622        -0.93682
C         18.61311         7.82556        -1.59669
C         19.87162         5.88172        -0.71048
C         19.86512         8.44770        -2.16755
C         18.62428        10.71456        -1.99422
C         18.52011        12.12132        -1.60432
C         19.81133         9.98078        -2.14048
C         19.68260        12.93129        -1.28047
C         18.35495        14.49603         0.08941
C         18.24401        15.38874         1.20339
C         19.60563        14.00213        -0.30757
C         19.43450        16.02816         1.75960
C         18.18494        17.96202         2.88369
C         19.38566        17.19656         2.59785
C         21.10173         2.68870         0.91197
C         21.15668         3.83797        -0.06024
C         22.29962         4.78817         0.23618
C         21.18712         6.42527        -1.24600
C         21.14635         7.90947        -1.53591
C         22.31434         5.99996        -0.32823
C         22.29776         8.62683        -1.65597
C         21.08798        10.58273        -2.41308
C         20.95442        12.74141        -1.86643
C         22.28837         9.95308        -2.20372
C         22.10531        13.39037        -1.41990
C         20.80333        14.57077         0.25649
C         20.70825        15.58047         1.30258
C         22.03941        14.24863        -0.32109
C         21.88640        16.14782         1.84090
C         20.59075        17.77349         3.04617
C         21.82636        17.21708         2.72616
O         12.26564         4.25238        -1.78933
O         11.79185        12.64345        -3.35194
O         16.65541         6.89953         0.52009
O         16.70920        10.38018        -3.49296
O          6.29746         5.24726        -1.63560
O          6.13917        11.36741        -3.25054
O         10.50914         8.35405         0.16502
O          2.18290        13.94966        -2.96858
O          5.52287        15.20378        -2.63362
O         21.09353        11.88060        -2.96291
O         14.38681        16.06564         2.95869
O         14.77278        14.10797        -2.22263
O          7.17513        13.17741        -0.17896
O          6.78453        17.38583        -0.98166
O         11.91605        16.17799         2.64436
O         13.27217        13.45326         0.93178
O          9.75204         4.32694        -1.42893
O         16.87110        15.99959         3.10352
O         13.60794         6.70190        -2.71832
O          9.74018        13.99374        -2.65869
O         19.95939         7.99639        -3.56493
H         19.02667         7.95273        -3.90899
O          5.82301         7.47858        -2.93627
H          6.56221         6.87579        -3.20488
O         14.03018         2.53087        -0.91138
H         13.70375         2.85807        -1.78118
O         10.23254         2.29774         3.68314
H         10.31588         3.20908         4.03047
O         21.40942         5.78679        -2.55188
H         20.91397         6.33561        -3.21257
O         17.32967        15.10416        -1.93587
H         16.57747        14.92857        -2.54801
O          8.22942         6.17368        -2.87696
H          8.27343         5.20958        -3.06212
O         21.39071         3.25700        -1.37375
H         21.46035         4.01178        -2.01238
O         17.29348         7.92671        -3.54628
H         16.79995         8.62414        -4.05042
O          4.02077         7.73061         1.62988
H          3.20055         8.22794         1.83751
H          0.66630         2.94190         3.35213
H          0.45492         4.83503         1.77742
H          2.92267         2.05044         3.95560
H          0.34313         6.30623         0.46808
H          0.23747         8.45070        -0.68422
H          0.18336        10.05183        -1.81602
H          0.17506        12.34058        -2.80595
H          0.12607        15.27550        -2.10884
H          0.11347        16.92409        -0.21499
H          1.31752        18.22222         1.44613
H          5.36936         2.14236         3.73180
H          3.45601        18.99569         2.45187
H          7.74567         2.12860         3.50679
H          5.85273        18.96058         2.57637
H          9.98898         1.30036         1.90823
H          8.35736        18.95790         2.72013
H         12.61991         1.97919         3.01988
H         10.71495        19.31438         2.39107
H         15.03590         1.78524         2.75927
H         13.28360        19.29257         2.75817
H         17.48608         1.39445         2.23516
H         15.71787        19.21283         3.02202
H         19.95207         1.33450         2.08352
H         18.30276        19.04959         2.99931
H         22.05532         2.19646         1.15707
H         23.12592         4.45409         0.88267
H         23.15336         6.68579        -0.14069
H         23.26754         8.19694        -1.36895
H         23.23201        10.45838        -2.44327
H         23.06177        13.20046        -1.92344
H         22.96929        14.70555         0.03797
H         22.87215        15.76107         1.55479
H         20.54349        18.67298         3.67605
H         22.75111        17.65177         3.12940
