         234
 CSIRO Nanostructure Databank - Neutral Graphene Oxide Data Set
C          1.20915         1.90901         0.05461
C          1.15477         3.33615         0.01189
C          2.39261         1.22812         0.21583
C          2.28641         4.10062         0.19882
C          1.17335         6.34519         0.34467
C          1.20993         7.77261         0.26002
C          2.28393         5.55595         0.12932
C          2.32861         8.48397        -0.13482
C          1.22583        10.72779        -0.13819
C          1.24074        12.14405        -0.23153
C          2.37144         9.93685        -0.25551
C          2.37903        12.85540        -0.57414
C          1.21059        15.08666        -0.47334
C          1.19956        16.43464        -0.32198
C          2.43990        14.31973        -0.60474
C          2.44731        17.18258        -0.13427
C          2.47406        18.65848        -0.15773
C          3.63145         1.92407         0.40610
C          3.54565         3.39863         0.58058
C          4.85122         1.26172         0.33839
C          4.82733         4.15905         0.71971
C          3.55975         6.22742        -0.22432
C          3.55901         7.72259        -0.46826
C          4.85071         5.54318         0.11112
C          4.87322         8.47698        -0.51104
C          3.63346        10.61365        -0.47338
C          3.59847        12.05370        -0.81022
C          4.86015         9.95614        -0.45301
C          4.92176        12.77890        -0.90821
C          3.63953        15.00671        -0.78214
C          3.73730        16.45545        -0.45177
C          4.91299        14.27533        -0.95379
C          4.95094        17.29216        -0.88581
C          3.64802        19.32734        -0.08325
C          4.95759        18.69592        -0.22070
C          6.11896         1.92435         0.41498
C          6.11688         3.37553         0.73607
C          7.33983         1.26874         0.29310
C          7.39637         4.12147         0.60319
C          6.09300         6.36661         0.25789
C          6.14030         7.78568        -0.19117
C          7.36744         5.61680         0.46743
C          7.31630         8.49133        -0.08480
C          6.12702        10.65612        -0.42609
C          6.15609        12.07308        -0.51475
C          7.34394         9.94467        -0.18038
C          7.34779        12.77665        -0.23788
C          6.18223        14.99478        -0.67600
C          6.20519        16.48055        -0.61201
C          7.32688        14.27490         0.00089
C          7.44120        17.02357        -0.79376
C          6.05309        19.45593         0.12986
C          7.43651        19.11595        -0.17208
C          8.61336         1.94524         0.28537
C          8.60518         3.43439         0.00162
C          9.82199         1.27594         0.34891
C          9.86346         4.17407         0.41124
C          8.63636         6.27024         0.04135
C          8.61642         7.76387        -0.06363
C          9.88991         5.54883         0.35579
C          9.87263         8.46553         0.21619
C          8.54659        10.64860         0.06052
C          8.52363        12.06559         0.07235
C          9.78100         9.91803         0.59269
C          9.75137        12.83870         0.39133
C          8.65779        14.97317        -0.20902
C          8.68117        16.39810        -0.39792
C          9.81946        14.28108         0.06022
C          9.83824        17.16560        -0.14348
C          8.62679        19.35090         0.45214
C          9.86071        18.61258         0.09187
C         11.09411         1.95846         0.42721
C         11.07211         3.41248         0.72099
C         12.31332         1.32139         0.33814
C         12.39127         4.19691         0.76148
C         11.11825         6.31357         0.40216
C         11.07093         7.77766         0.31147
C         12.32225         5.64979         0.54520
C         12.32767         8.50994         0.32070
C         11.07915        10.63525         0.33757
C         11.05457        12.08602         0.48546
C         12.30631         9.95367         0.26893
C         12.28699        12.84864         0.17648
C         11.07566        14.99213         0.12250
C         11.08053        16.44718         0.01108
C         12.25617        14.30375         0.34784
C         12.29257        17.12677        -0.05400
C         11.08467        19.25264         0.18232
C         12.33878        18.56823        -0.05210
C         13.58070         2.02656         0.31148
C         13.63159         3.47115         0.41094
C         14.76725         1.34089         0.09392
C         14.81084         4.16076         0.14981
C         13.58994         6.38620         0.50488
C         13.55391         7.83995         0.28200
C         14.86894         5.63913         0.27783
C         14.79728         8.52636         0.17406
C         13.55822        10.64863         0.26042
C         13.59285        12.11231         0.14183
C         14.78862         9.95636         0.23037
C         14.84743        12.82613         0.40147
C         13.53141        15.00857         0.56829
C         13.56034        16.36465        -0.04134
C         14.84579        14.28058         0.62712
C         14.86932        17.01179        -0.34510
C         13.55789        19.21038        -0.21003
C         14.75653        18.48474        -0.80555
C         16.01832         2.02141        -0.11327
C         16.04208         3.48055        -0.11320
C         17.18367         1.30858        -0.30622
C         17.25959         4.18676        -0.25333
C         16.02367         6.35787        -0.40285
C         16.02453         7.84033        -0.10592
C         17.35167         5.68791         0.02759
C         17.21621         8.54028        -0.22945
C         16.02743        10.66251         0.26820
C         16.04011        12.10172         0.42047
C         17.24739         9.93587         0.13357
C         17.26087        12.79341         0.70749
C         16.13354        15.04203         0.56178
C         16.12648        16.40930         0.24161
C         17.30218        14.20358         0.88758
C         17.28802        17.28573         0.24676
C         16.05446        19.21943        -0.71328
C         17.25488        18.59511        -0.40438
C         18.42699         1.98637        -0.78291
C         18.45199         3.47609        -0.50524
C         19.70399         1.31758        -0.34952
C         19.65785         4.16030        -0.73027
C         18.56156         6.38303        -0.59895
C         18.42524         7.89691        -0.89295
C         19.65939         5.60546        -0.95851
C         19.69042         8.73781        -0.68941
C         18.47167        10.58082         0.40789
C         18.44180        11.94445         0.97657
C         19.71507         9.96638         0.04373
C         19.73559        12.57716         1.39303
C         18.50653        14.74323         1.41154
C         18.48663        16.97132         0.89222
C         19.74930        14.05882         1.47693
C         19.73153        17.60550         0.62077
C         18.48141        19.29451        -0.62142
C         19.71946        18.78106        -0.20756
C         20.86161         1.99842        -0.43015
C         20.87731         3.39918        -0.84073
C         22.03273         3.99142        -1.31873
C         20.84680         6.08113        -1.64884
C         20.85643         8.40187        -1.38402
C         21.98154         5.32087        -1.81363
C         22.04758         9.13088        -1.28911
C         20.95080        10.66822         0.23472
C         21.04189        11.77872         1.28739
C         22.09952        10.22699        -0.42460
C         22.24454        12.68586         1.15961
C         20.97187        14.72954         1.61456
C         20.98385        17.12546         1.10801
C         22.20701        14.02062         1.41911
C         22.17091        17.77151         0.79172
C         20.95754        19.42975        -0.50965
C         22.14692        18.92844        -0.02603
O         18.49048        16.02674         1.92991
O          4.18009         8.03527        -1.74799
O          5.83964        14.65713        -2.05775
O          8.66509         6.88197        -1.27925
O          6.70394         6.25805         1.59651
O          4.33292         5.50903        -1.25199
O          4.01607         3.94065         1.89747
O         20.83541         7.32815        -2.29355
O         12.88201        12.52679        -1.13446
O         11.72377         3.74651         1.98546
O         18.85600        12.00622         2.42861
O          7.52961        18.31309        -1.33140
O         21.04698        16.05522         2.02755
O          4.26570        12.26752        -2.11009
O         14.22654        16.17304        -1.37002
O          6.98106         3.65561         1.90419
O         10.35178        12.54443         1.71604
O         14.53467         6.07143         1.61995
O         14.10478        14.73293         1.88264
O          3.33003        16.66350         0.93544
O          4.81761        17.51077        -2.30784
H          5.67995        17.84727        -2.63511
O         18.10664         7.93638        -2.33335
H         18.93084         7.66929        -2.80665
O         21.24852        11.09259         2.55322
H         20.36049        11.03526         2.98341
O          9.60237         9.92296         2.05886
H          9.77015        10.85199         2.35591
O         15.86497         6.17741        -1.82783
H         16.53768         6.75233        -2.27197
O         17.44959         5.86548         1.46479
H         18.21930         5.35177         1.78582
O         18.38686         1.86673        -2.26135
H         17.57645         2.32901        -2.56495
O          8.44336         3.58227        -1.43978
H          9.22409         3.19031        -1.88332
O          7.03847        14.43001         1.42985
H          7.78536        14.04309         1.93543
O         14.46439        18.50143        -2.24116
H         14.11835        17.60020        -2.46119
H          0.27791         1.34683        -0.10221
H          0.19516         3.82002        -0.21952
H          2.40674         0.12935         0.17038
H          0.22126         5.87493         0.62925
H          0.28611         8.30992         0.51680
H          0.25697        10.24836         0.05956
H          0.29573        12.66954        -0.03647
H          0.25260        14.55859        -0.57674
H          0.25060        16.99052        -0.34641
H          1.51834        19.20281        -0.13319
H          4.84563         0.17414         0.16534
H          3.63375        20.42326         0.02697
H          7.34292         0.16942         0.21819
H          5.86174        20.41050         0.64940
H          9.82677         0.17521         0.39727
H          8.68755        20.05597         1.29487
H         12.33996         0.23174         0.18192
H         11.11366        20.33401         0.38336
H         14.75774         0.24237         0.03079
H         13.58890        20.31085        -0.19822
H         17.16528         0.20858        -0.27375
H         16.08214        20.22712        -1.15446
H         19.68149         0.25743        -0.05807
H         18.44650        20.25851        -1.14862
H         21.82399         1.51466        -0.20438
H         22.96276         3.41233        -1.39985
H         22.84400         5.74777        -2.34139
H         22.92943         8.81800        -1.86152
H         23.05282        10.75709        -0.29936
H         23.22696        12.20628         1.04256
H         23.14104        14.60020         1.44812
H         23.12311        17.39072         1.18263
H         20.94631        20.33331        -1.13460
H         23.09382        19.43240        -0.26425
