         477
 CSIRO Nanostructure Databank - Neutral Graphene Oxide Data Set
C         27.85639        27.37289        -0.23508
C         27.77482        28.78969        -0.02696
C         26.60661        29.51291        -0.23217
C         27.76265        31.64275         0.11957
C         26.56636        30.90849        -0.02433
C         27.79847        33.14650         0.38064
C         26.53030        33.95432         0.22920
C         27.74224        36.18159        -0.03886
C         26.52838        35.29677         0.18621
C         27.85965        37.39562         0.88904
C         26.71875        38.34177         0.92237
C         28.08919        40.19407         1.89506
C         26.81956        39.58752         1.43049
C         28.16910        41.69459         2.06120
C         26.93641        42.52879         2.06716
C         28.17442        44.54511         1.25111
C         26.96075        43.84045         1.79887
C         28.26891        45.99440         1.65000
C         30.21296        27.25626         0.65541
C         28.97814        26.65590         0.03262
C         30.28335        28.76847         0.41023
C         28.96324        29.49375         0.59120
C         30.25038        31.59301        -0.11924
C         28.98007        30.94909         0.21627
C         30.26526        33.07931        -0.38466
C         28.97573        33.84680        -0.27302
C         30.37302        35.89865         0.17241
C         29.02556        35.33586        -0.17372
C         30.49285        37.28377         0.71343
C         29.22919        37.98940         1.14755
C         30.59065        40.17726         1.15350
C         29.36650        39.42893         1.56478
C         30.63056        41.55215         1.27862
C         29.48501        42.36473         1.76505
C         30.66049        44.51606         1.33704
C         29.48529        43.82706         1.48884
C         30.68245        45.96757         1.23871
C         29.44312        46.65750         1.56554
C         32.82067        24.42345         0.14363
C         31.56740        25.13955         0.13619
C         32.75232        27.22398         0.53166
C         31.48713        26.49463         0.29765
C         32.74159        28.71838         0.60154
C         31.46872        29.45043         0.37027
C         32.72617        31.56392        -0.07607
C         31.54325        30.89564         0.11171
C         32.76505        32.96995        -0.67118
C         31.54515        33.79684        -0.36877
C         32.83434        35.89303        -0.29215
C         31.59541        35.17442        -0.26274
C         32.87446        37.34185        -0.14772
C         31.70661        38.07367         0.37964
C         33.03300        40.19012         0.38068
C         31.72324        39.43735         0.58140
C         32.82857        41.66981         0.01493
C         31.89020        42.29864         1.01717
C         33.06823        44.51654         0.54543
C         31.93451        43.78473         1.15477
C         33.08790        45.91064         0.62554
C         31.87366        46.63980         0.95972
C         33.07905        48.76164         0.70854
C         31.91621        48.08775         0.81787
C         35.39621        22.97366         0.27009
C         35.33587        24.37344         0.22579
C         34.04496        25.05128         0.20684
C         35.32762        27.27573         0.21312
C         34.03441        26.53347         0.16504
C         35.34077        28.73402         0.55644
C         34.04489        29.48110         0.53256
C         35.28458        31.62679        -0.08775
C         34.02306        30.79683        -0.22826
C         35.27403        32.98918        -0.30042
C         34.04368        33.72751        -0.41255
C         35.27450        35.84688        -0.77929
C         34.03086        35.12957        -0.42680
C         35.23334        37.33847        -0.94004
C         34.03227        38.04146        -0.46849
C         35.31566        40.27243        -0.55802
C         33.98409        39.54229        -0.63129
C         35.35722        41.65168        -0.44256
C         34.15167        42.40572        -0.12904
C         35.32407        44.55448        -0.57888
C         34.18916        43.77840         0.03879
C         35.43510        45.98287        -0.11185
C         34.32235        46.63342         0.38367
C         35.57023        48.84271         0.36756
C         34.40289        48.05373         0.90417
C         35.66789        50.20865         0.63030
C         37.83592        22.95791         0.15623
C         36.60929        22.28377         0.25655
C         37.82829        24.39201         0.09635
C         36.58013        25.11015         0.18284
C         37.82382        27.24618         0.07249
C         36.60695        26.52602         0.21196
C         37.85115        28.67750        -0.03570
C         36.63600        29.45991         0.29925
C         37.81530        31.60349        -0.43518
C         36.58926        30.93571         0.04061
C         37.83359        32.97999        -0.48343
C         36.57358        33.71946        -0.23208
C         37.84808        35.85923        -0.87302
C         36.58329        35.19826        -0.50179
C         37.84444        37.33047        -1.06814
C         36.54266        38.08119        -1.02228
C         37.88984        40.21966        -0.50046
C         36.56629        39.49304        -0.52415
C         37.83793        41.68497        -0.58674
C         36.63908        42.36346        -0.53518
C         37.79608        44.53175        -0.85984
C         36.64545        43.82366        -0.57965
C         37.78502        45.98255        -0.84915
C         36.65761        46.68332        -0.42829
C         37.95899        48.85549        -0.39482
C         36.58336        48.19772        -0.53747
C         38.03550        50.31320        -0.06688
C         36.78777        50.97553         0.31372
C         40.38874        20.15601         0.34581
C         39.16620        20.82940         0.28763
C         40.29597        22.95516        -0.13164
C         39.09823        22.23744         0.08760
C         40.29535        24.37504        -0.19788
C         39.04867        25.10030        -0.06055
C         40.26108        27.25605        -0.24953
C         39.05197        26.52878        -0.09650
C         40.27871        28.65629        -0.28393
C         39.04019        29.36362        -0.27673
C         40.31655        31.54588        -0.43868
C         39.04713        30.79782        -0.76237
C         40.30320        32.97285        -0.50116
C         39.06253        33.70937        -0.64430
C         40.31682        35.87549        -0.85966
C         39.03640        35.13528        -0.79887
C         40.30360        37.35466        -0.71722
C         39.11064        38.07271        -0.82918
C         40.37439        40.17554        -0.99449
C         39.14685        39.48537        -0.81337
C         40.31417        41.63588        -1.12335
C         39.14547        42.44967        -0.58208
C         40.29145        44.51990        -1.50006
C         38.98912        43.74505        -1.39682
C         40.26292        45.97966        -1.65716
C         38.97744        46.71483        -1.35530
C         40.37751        48.85647        -1.20021
C         39.06326        48.20039        -1.18994
C         40.42057        50.30383        -1.18425
C         39.18433        51.10960        -0.60970
C         40.62246        53.09564        -0.44013
C         39.46211        52.45959        -0.12108
C         42.85336        20.15787         0.19609
C         41.59791        20.81077         0.08319
C         42.83132        22.98115        -0.30515
C         41.55434        22.20201        -0.48934
C         42.77260        24.37759        -0.34712
C         41.52017        25.06378        -0.34077
C         42.69059        27.20663         0.27313
C         41.56201        26.55468        -0.52721
C         42.73964        28.70322        -0.00750
C         41.55027        29.38727        -0.22976
C         42.73859        31.55780        -0.00215
C         41.52567        30.84338        -0.24761
C         42.72169        32.99635         0.02358
C         41.51577        33.66932        -0.30227
C         42.66894        35.87945         0.14675
C         41.56662        35.12453        -0.51822
C         42.67322        37.37059         0.02000
C         41.51966        38.06295        -0.60284
C         43.04167        39.87443        -1.21558
C         41.59450        39.43581        -0.90142
C         43.20059        41.33164        -1.49019
C         41.31447        42.37400        -1.68228
C         42.82594        44.39319        -1.47370
C         41.47434        43.81583        -1.55718
C         42.92379        45.88475        -1.84541
C         41.59251        46.68200        -1.69502
C         42.89685        48.80984        -1.24517
C         41.62510        48.04438        -0.98599
C         42.91951        50.23599        -1.27899
C         41.71399        50.99610        -1.16086
C         43.01136        53.06430        -1.12245
C         41.76382        52.38969        -0.97760
C         44.03886        20.83408         0.01580
C         45.29951        22.94999        -0.28818
C         44.08268        22.25840        -0.20979
C         45.27587        24.41599        -0.46421
C         44.00751        25.16502        -0.27446
C         45.23834        27.23229         0.46950
C         43.99479        26.49996         0.01368
C         45.21621        28.73618         0.30320
C         43.99419        29.40480         0.13285
C         45.16869        31.54877         0.39815
C         43.97225        30.84684         0.15492
C         45.07802        32.96634         0.76498
C         43.88685        33.73181         0.39523
C         45.03729        35.89339         0.87342
C         43.93014        35.16196         0.45836
C         44.99462        37.40384         1.08281
C         43.92509        38.09411         0.26747
C         45.17975        40.21205         0.09985
C         44.05212        39.38138        -0.20523
C         45.23126        41.57767        -0.24427
C         44.09119        42.21624        -0.94117
C         45.26982        44.42967        -1.00722
C         43.98364        43.67927        -1.17207
C         45.24320        45.91904        -0.96296
C         44.10308        46.61208        -1.23120
C         45.32415        48.79743        -1.23807
C         44.09684        48.08558        -1.22374
C         45.37900        50.18206        -1.40822
C         44.16410        50.93338        -1.39081
C         44.16612        52.35869        -1.36524
C         47.77412        22.99651        -0.27900
C         46.59780        22.31634        -0.34952
C         47.82176        24.45804         0.07885
C         46.56180        25.16445        -0.38431
C         47.76807        27.38914         0.09062
C         46.49760        26.64998        -0.14371
C         47.69186        28.77815         0.60558
C         46.45873        29.45295         0.47098
C         47.62809        31.67701         0.47903
C         46.43115        30.90333         0.49990
C         47.61795        33.08105         0.71575
C         46.34119        33.70685         1.10481
C         47.55964        35.93265         1.48195
C         46.27019        35.19275         1.28828
C         47.50816        37.43010         1.39670
C         46.32842        38.09159         0.84627
C         47.61634        40.22808         0.59596
C         46.28106        39.60573         0.96187
C         47.63292        41.70601         0.40094
C         46.43427        42.31899        -0.02957
C         47.57327        44.57353         0.28322
C         46.48393        43.74376        -0.42640
C         47.77545        45.92827        -0.44431
C         46.43760        46.69533        -0.42054
C         47.66825        48.92296        -0.38430
C         46.62813        48.04732        -1.14393
C         47.82259        50.18942        -1.20184
C         46.69419        50.80439        -1.60553
C         50.26310        24.69009        -0.76037
C         49.06198        25.25639        -0.31438
C         50.24186        27.37920        -0.01615
C         49.04592        26.64310        -0.03044
C         50.24288        28.67131         0.72430
C         48.96638        29.49311         0.78609
C         50.05213        31.78969        -0.24793
C         48.96003        31.00992         0.47098
C         49.98340        33.29744         0.01082
C         48.79047        33.86832         0.66861
C         50.02946        35.95872         1.04907
C         48.83344        35.23584         1.09861
C         50.07351        37.30029         1.76910
C         48.80337        38.15461         1.54772
C         50.19874        40.29835         0.89603
C         48.88833        39.50172         0.86282
C         49.96457        41.75676         1.35704
C         48.84045        42.42166         0.59070
C         50.07666        44.54575         0.63031
C         48.90091        43.82865         0.40025
C         50.06000        46.02945         0.64241
C         48.88656        46.76842         0.15377
C         50.18542        48.83544         0.05677
C         48.93117        48.13172        -0.05059
C         51.39472        25.48510        -0.97364
C         52.63017        27.65986        -0.77500
C         51.42258        26.83279        -0.57509
C         52.56741        29.07460        -1.04079
C         51.40039        29.84823        -1.17849
C         52.51376        31.99808        -0.79539
C         51.36818        31.21530        -0.72278
C         52.45641        33.45866        -0.53002
C         51.23432        34.06767         0.02901
C         52.51763        36.07235         0.70924
C         51.25878        35.35749         0.57267
C         52.58666        37.42829         1.39595
C         51.28016        38.13376         1.46583
C         52.53166        40.32093         2.05905
C         51.15622        39.57721         1.86288
C         52.46602        41.82403         1.73160
C         51.28948        42.49308         1.33689
C         52.55821        44.55675         0.96527
C         51.32112        43.86924         0.97378
C         52.64979        45.94477         0.36591
C         51.40277        46.77759         0.63224
C         51.36756        48.18121         0.21197
C         55.07793        27.79966        -0.59041
C         53.87182        27.05857        -0.58678
C         55.09108        29.15677        -0.85002
C         53.82759        29.82976        -1.19102
C         55.10057        32.10571        -1.03745
C         53.78564        31.37895        -1.22215
C         55.08754        33.55109        -0.58607
C         53.76149        34.25001        -0.42331
C         54.98797        36.19441         0.63108
C         53.72213        35.51966         0.32984
C         55.00201        37.56136         0.85114
C         53.66619        38.27966         0.71979
C         54.98281        40.44658         1.36332
C         53.67969        39.73575         1.19835
C         54.96762        41.77578         2.16507
C         53.69235        42.52017         1.77127
C         55.00005        44.58804         1.37552
C         53.74234        43.88433         1.36816
C         55.02742        45.99795         1.13546
C         53.91922        46.66647         0.72346
C         56.30211        29.93235        -0.75189
C         56.31296        31.28496        -0.82699
C         56.23941        34.13628         0.13382
C         56.19246        35.38205         0.65413
C         56.21380        38.31727         1.05094
C         56.22869        39.65851         1.26039
C         56.22330        42.56828         1.95063
C         56.21541        43.89400         1.64389
O         32.70786        27.90115         1.83760
O         49.53791        32.66891        -1.28584
O         28.88215        34.65850        -1.47816
O         42.29984        41.75645        -2.46854
O         35.09150        36.44481        -2.10577
O         50.70762        46.52839         1.87188
O         45.57082        33.07761         2.17536
O         38.59723        47.62923        -2.47593
O         52.84602        40.11505         3.40858
O         48.31288        39.49116        -0.48491
O         37.19872        37.86399        -2.30496
O         28.88362        39.56106         2.93470
O         38.40701        49.23373         0.92833
O         34.60775        27.07436        -1.07945
O         47.05804        27.37961        -1.25675
O         36.63820        34.67081         0.88003
O         55.35628        33.20046        -1.98140
O         46.05339        24.80571        -1.68478
O         41.27182        35.47241        -1.91769
O         36.89962        30.39563         1.39855
O         53.79823        30.60009        -2.45202
O         30.65259        36.12775         1.60931
O         46.35060        43.89171        -1.88800
O         47.95362        38.11390         2.71618
O         34.75432        29.27931         1.77940
O         46.79842        35.49787         2.65387
O         49.15213        30.50030         1.83125
O         42.19780        36.68597         1.26628
O         40.82878        46.54086        -2.91358
O         32.43695        42.88475         2.23707
O         47.18643        44.77491         1.61334
O         29.06654        42.07150         3.15396
O         37.29099        39.66500         0.74591
O         30.18057        32.13452        -1.52915
O         54.18863        40.59631         0.12371
O         28.51237        37.19629         2.15240
O         39.38525        50.93718        -2.02998
O         51.21939        29.03010         1.36810
O         52.98876        34.26232        -1.65038
O         36.13910        48.48786        -1.90186
H         36.87370        48.20664        -2.50630
O         41.44857        21.99671        -1.96497
H         40.64917        21.44768        -2.11759
O         34.95021        44.62952        -2.00768
H         35.57319        45.25321        -2.43920
O         44.70408        37.59410         2.51313
H         45.32323        36.99889         3.00159
O         38.63511        43.33989        -2.74793
H         38.62614        44.13858        -3.31636
O         43.36590        39.18485        -2.46420
H         42.88890        39.65288        -3.18423
O         27.97998        44.53269        -0.21214
H         28.69467        45.07561        -0.60854
O         47.13431        49.37010         0.88383
H         46.77114        48.56964         1.34169
O         33.72499        40.13991         1.64552
H         33.21962        40.66020         2.30723
O         47.77293        24.53898         1.54273
H         48.53425        24.03592         1.90097
O         45.98016        40.00007         2.32581
H         45.38633        39.30500         2.70721
O         47.06996        47.85941        -2.49635
H         47.79030        47.17951        -2.50193
O         39.42027        42.82832         0.78833
H         39.29819        42.04096         1.35947
O         32.75382        32.71546        -2.13715
H         31.81686        32.46101        -2.34705
O         33.46201        39.71912        -1.98834
H         34.00957        39.17738        -2.59727
O         32.09958        41.80583        -1.22793
H         32.57496        41.28844        -1.92135
O         45.28941        26.97668         1.91905
H         45.96071        27.57589         2.31211
O         52.93838        37.24834         2.79562
H         52.11278        37.02403         3.29105
O         46.11558        46.97969         0.95754
H         46.39706        46.17232         1.50228
O         50.14488        36.93303         3.18167
H         49.34085        37.33309         3.60750
O         41.89091        26.79344        -1.92859
H         41.21053        26.35781        -2.48317
O         52.67005        45.78824        -1.09430
H         53.44379        45.23303        -1.32822
O         49.47998        41.74108         2.72053
H         49.13607        42.63385         2.93870
O         28.71609        29.44436         2.04577
H         28.96547        28.52999         2.34284
O         28.15214        33.23430         1.80084
H         27.53635        32.66796         2.31223
O         34.60744        47.95729         2.35310
H         33.85794        47.44453         2.72392
O         43.23408        45.87941        -3.26442
H         42.37468        45.87779        -3.74832
O         27.53114        36.80517        -1.33518
H         27.65707        36.09995        -2.01176
O         53.31617        38.29970        -0.68076
H         53.72340        39.11193        -1.06205
O         30.08525        27.09640         2.11397
H         30.96123        27.37421         2.48562
O         54.99687        41.49468         3.57337
H         54.17361        40.94150         3.78164
O         34.03617        30.36735        -1.63187
H         33.72669        31.14720        -2.16572
O         41.63131        47.65336         0.43745
H         41.81121        48.45171         0.97845
O         42.40456        27.05667         1.68738
H         43.26159        27.12509         2.16978
O         48.24434        45.65238        -1.78412
H         47.59976        45.02591        -2.21158
O         50.49522        39.51643         3.13332
H         51.25162        39.60459         3.78410
O         50.77580        40.32195        -0.40832
H         50.05688        40.13176        -1.05623
O         39.02882        30.65440        -2.23739
H         39.22394        31.53514        -2.62400
O         50.23219        29.30664        -1.63563
H         49.60474        30.02030        -1.87236
H         26.97215        26.86170        -0.64753
H         25.69348        28.99064        -0.55477
H         25.60442        31.43227        -0.11014
H         25.56613        33.43020         0.32431
H         25.55808        35.81880         0.16731
H         25.75809        38.00728         0.50372
H         25.93467        40.24098         1.39586
H         26.00353        42.06148         2.41863
H         26.03464        44.43110         1.87266
H         27.34385        46.53186         1.90671
H         28.97199        25.57301        -0.15617
H         29.47529        47.73473         1.78304
H         32.75898        23.32670         0.11567
H         30.65340        24.53431         0.05180
H         33.06457        49.85273         0.57412
H         30.96685        48.63916         0.75672
H         34.46798        22.38847         0.31813
H         34.83032        50.71530         1.13320
H         36.58058        21.18709         0.29830
H         36.76369        52.06702         0.43641
H         40.40547        19.09643         0.64153
H         38.25067        20.26148         0.49769
H         40.77161        54.14071        -0.13072
H         38.70356        52.96088         0.49807
H         42.87027        19.08854         0.45557
H         43.03975        54.15847        -1.02002
H         44.98375        20.28308         0.11550
H         45.11845        52.89661        -1.46677
H         48.71872        22.43617        -0.34864
H         46.63739        21.22642        -0.49576
H         48.80494        50.64605        -1.39061
H         46.74481        51.76573        -2.13851
H         50.30926        23.61988        -1.00710
H         50.20179        49.91140        -0.16558
H         52.28550        25.03377        -1.43252
H         52.31292        48.71746         0.04719
H         56.01926        27.28830        -0.34229
H         53.91723        25.99242        -0.32455
H         55.97478        46.53607         1.28912
H         53.98198        47.74508         0.52202
H         57.24660        29.38846        -0.60224
H         57.27525        31.81443        -0.80441
H         57.18265        33.57385         0.16024
H         57.09808        35.79717         1.11814
H         57.17421        37.78156         1.03194
H         57.19132        40.16494         1.42204
H         57.17422        42.08286         2.21360
H         57.15857        44.45931         1.59992
