         638
 CSIRO Nanostructure Databank - Neutral Graphene Oxide Data Set
C         23.10007        69.79894         2.14118
C         23.07477        71.18717         2.21600
C         21.95869        71.89521         2.71968
C         23.15095        74.02148         2.61777
C         21.99289        73.28831         2.87247
C         25.45419        65.54298         1.28584
C         25.43918        66.94601         1.31383
C         24.26282        67.68150         1.65212
C         25.48869        69.80668         1.45549
C         24.26272        69.07568         1.71484
C         25.51977        71.22776         1.59512
C         24.21104        71.97969         1.60523
C         25.53942        74.05287         2.06088
C         24.32924        73.38982         2.13237
C         27.92663        61.24847         0.72985
C         28.00401        62.68592         1.15349
C         26.70107        63.42381         1.13882
C         27.85867        65.56102         0.69699
C         26.65911        64.81505         1.04575
C         27.80761        66.96614         0.61905
C         26.64306        67.67082         0.99525
C         27.89524        69.82694         0.94599
C         26.66464        69.10411         1.10820
C         27.94950        71.21543         1.26778
C         26.72941        71.91846         1.55927
C         27.97789        74.03313         1.76817
C         26.77545        73.36923         1.76361
C         30.33369        57.01243        -0.02792
C         30.29587        58.43037        -0.00197
C         29.09454        59.14170         0.19728
C         30.28999        61.30727         0.03545
C         29.06791        60.56513         0.32492
C         30.25725        62.71158         0.02408
C         29.11488        63.44199         0.46699
C         30.27311        65.60989         0.09190
C         29.07048        64.84258         0.39583
C         30.23942        66.98636         0.04714
C         28.94081        67.74050        -0.00872
C         30.26182        69.88300         0.35248
C         29.07053        69.16609         0.49365
C         30.34430        71.25602         0.74607
C         29.18384        71.90726         1.21476
C         30.45059        74.06335         1.22507
C         29.28842        73.29597         1.79177
C         32.74899        52.62089        -0.36020
C         32.47809        53.97509         0.03843
C         31.44085        54.83322        -0.27184
C         32.77877        56.99408        -0.24110
C         31.53379        56.27411        -0.11244
C         32.75930        58.44510        -0.28239
C         31.53327        59.15511        -0.16102
C         32.73527        61.26754        -0.39537
C         31.51446        60.58027        -0.21089
C         32.74274        62.71147        -0.63502
C         31.41658        63.46971        -0.47176
C         32.72503        65.56505        -0.34639
C         31.51109        64.90686        -0.20436
C         32.78392        67.03990        -0.03007
C         31.46492        67.73408        -0.28146
C         32.79960        69.90898        -0.03603
C         31.48293        69.22681        -0.16502
C         32.80633        71.31227         0.29451
C         31.58182        71.98271         0.61268
C         32.78357        74.18656         0.29152
C         31.55614        73.42228         0.74998
C         35.35790        48.56715        -0.11970
C         35.34121        49.91538        -0.39762
C         34.05223        50.59507        -0.77685
C         35.28587        52.79700        -0.54579
C         34.02092        52.07722        -0.45229
C         35.35470        54.21550        -0.64566
C         34.29372        55.04185        -0.15314
C         35.08933        57.11780        -1.25649
C         34.01505        56.34276        -0.53743
C         35.28593        58.41004        -0.36558
C         33.97953        59.16729        -0.37781
C         35.20383        61.33685        -0.48731
C         33.97407        60.57441        -0.43542
C         35.20350        62.71479        -0.33625
C         33.98637        63.46444        -0.45436
C         35.22332        65.62277        -0.41006
C         33.97062        64.86282        -0.46760
C         35.22150        67.01077        -0.42684
C         33.95311        67.76883        -0.71149
C         35.24607        69.91929        -0.20485
C         33.98688        69.22512        -0.26526
C         35.25439        71.34113         0.02243
C         34.03927        72.01175         0.30704
C         35.32592        74.16518         0.46978
C         34.04676        73.44896         0.77875
C         37.84189        44.43721         0.99433
C         37.82878        45.82632         0.67185
C         36.61289        46.50595         0.44740
C         37.81688        48.59142        -0.01684
C         36.58907        47.87342         0.11181
C         37.80308        49.98730        -0.34499
C         36.56364        50.66080        -0.48576
C         37.74059        52.77413        -0.99940
C         36.52108        52.07964        -0.70689
C         37.70913        54.17408        -1.33861
C         36.50245        54.86394        -1.20659
C         37.70875        57.07750        -1.42558
C         36.41018        56.33376        -1.45788
C         37.77470        58.45410        -0.79850
C         36.46946        59.18517        -0.82435
C         37.74288        61.18016        -0.11011
C         36.48726        60.67180        -0.91630
C         37.76204        62.70866         0.01861
C         36.46201        63.46052        -0.08675
C         37.70188        65.62712        -0.32128
C         36.46716        64.91932        -0.26043
C         37.70768        67.00997        -0.42171
C         36.46552        67.74615        -0.03799
C         37.70939        69.91500        -0.32267
C         36.46837        69.22426        -0.31008
C         37.71864        71.34624        -0.17427
C         36.50056        72.04165         0.02792
C         37.75869        74.16946         0.15316
C         36.51266        73.48369         0.21845
C         40.24700        40.16123         1.64730
C         40.22113        41.54314         1.28748
C         39.03740        42.28673         1.29236
C         40.29228        44.36511         0.88860
C         39.04186        43.69705         1.07139
C         40.35196        45.86597         0.97419
C         39.06182        46.55219         0.56333
C         40.29970        48.68774         0.16914
C         39.04371        47.90761         0.23426
C         40.29763        50.02404        -0.44140
C         39.02536        50.70422        -0.59478
C         40.21903        52.68672        -1.54536
C         38.97525        52.05484        -0.97126
C         40.25110        54.19300        -1.48876
C         38.95738        54.89616        -1.85049
C         40.17588        57.06590        -1.44281
C         39.00078        56.35520        -1.43533
C         40.23216        58.50883        -1.27554
C         38.93422        59.27506        -1.37432
C         40.26792        61.26057        -0.33606
C         38.97410        60.63763        -0.74973
C         40.20247        62.77073        -0.46765
C         39.02364        63.43403        -0.25729
C         40.22582        65.65060        -0.48588
C         39.00315        64.92111         0.00224
C         40.21513        67.02919        -0.62669
C         38.92156        67.76294        -0.87905
C         40.16961        69.90744        -0.49678
C         38.94566        69.21797        -0.47845
C         40.18675        71.33699        -0.33474
C         38.96701        72.04267        -0.17807
C         40.21364        74.15966         0.00807
C         38.97691        73.47990        -0.01541
C         42.73616        36.04782         2.66211
C         42.70372        37.37462         2.22761
C         41.47591        38.09196         2.11576
C         42.66268        39.98203         0.98311
C         41.42717        39.40732         1.63565
C         42.67383        41.48719         0.94027
C         41.47096        42.20763         0.97355
C         42.71742        44.27163         0.40597
C         41.48466        43.62914         0.77994
C         42.71514        45.69525         0.08090
C         41.57781        46.44484         0.30352
C         42.78629        48.56060        -0.40207
C         41.62063        47.91323         0.18070
C         42.77243        49.92064        -0.67913
C         41.51448        50.64175        -0.74481
C         42.69853        52.71728        -1.30959
C         41.52192        52.03472        -1.13750
C         42.71419        54.20707        -1.05867
C         41.41493        54.88312        -1.44236
C         42.70372        57.07404        -1.46251
C         41.44161        56.34435        -1.84603
C         42.69918        58.47180        -1.32176
C         41.43337        59.19500        -1.22866
C         42.65051        61.34488        -1.06991
C         41.48278        60.62606        -0.97457
C         42.65347        62.77491        -0.80681
C         41.44906        63.49264        -0.62281
C         42.67133        65.63043        -0.74401
C         41.45000        64.91932        -0.59933
C         42.67326        67.07006        -0.77662
C         41.43902        67.76920        -0.73230
C         42.65153        69.91018        -0.69824
C         41.42589        69.19918        -0.66716
C         42.66037        71.34871        -0.52038
C         41.43541        72.03960        -0.33542
C         42.67125        74.15272        -0.06336
C         41.44047        73.46880        -0.13302
C         45.22086        33.33498         3.42530
C         43.99911        33.99892         3.24969
C         45.20389        36.03710         2.61826
C         43.96654        35.34897         2.84274
C         45.19720        37.39915         2.21123
C         43.95429        38.07239         1.97103
C         45.17451        40.11120         1.34837
C         43.95401        39.38973         1.50061
C         45.15012        41.45512         0.87294
C         43.90037        42.14854         0.68649
C         45.15002        44.12860        -0.24076
C         43.89574        43.53332         0.34271
C         45.15434        45.63626        -0.29024
C         43.95801        46.32402        -0.33286
C         45.23348        48.44175        -0.90610
C         43.91385        47.71113        -0.91918
C         45.21124        49.85217        -1.13725
C         44.00662        50.55895        -1.10537
C         45.26124        52.73439        -1.72474
C         43.96021        51.97079        -1.50515
C         45.21135        54.23267        -1.72897
C         43.94574        54.94040        -1.51474
C         45.15214        57.09404        -1.29679
C         43.93405        56.35613        -1.45040
C         45.13841        58.49064        -1.30862
C         43.92080        59.19378        -1.33811
C         45.17501        61.35737        -0.96378
C         43.93515        60.69532        -1.54904
C         45.15030        62.77114        -0.71130
C         43.88049        63.49190        -0.77649
C         45.17367        65.59790        -0.77260
C         43.87734        64.89067        -0.73769
C         45.17777        67.07762        -0.91299
C         43.88985        67.80732        -0.88110
C         45.16799        69.95072        -1.13537
C         43.88127        69.20305        -0.85393
C         45.15009        71.38857        -0.65946
C         43.89846        72.05413        -0.46173
C         45.13144        74.16607        -0.12398
C         43.90105        73.47069        -0.20501
C         46.42734        33.98748         3.20633
C         47.66130        36.03960         2.56585
C         46.44800        35.35164         2.80101
C         47.66897        37.39438         2.18522
C         46.42367        38.09062         2.01660
C         47.66011        40.18730         1.58531
C         46.42852        39.46642         1.65284
C         47.58115        41.58523         1.27239
C         46.37437        42.18809         0.78702
C         47.62268        44.23995         0.22178
C         46.40785        43.52943         0.33363
C         47.64623        45.60953        -0.22116
C         46.41309        46.31605        -0.48504
C         47.74907        48.36691        -1.09457
C         46.41848        47.70369        -0.79150
C         47.68499        49.85646        -0.96056
C         46.51142        50.54679        -1.57421
C         47.70420        52.74403        -1.11234
C         46.51206        52.04955        -1.38744
C         47.74539        54.21600        -1.12943
C         46.50390        54.97111        -1.46488
C         47.66399        57.14216        -1.02661
C         46.38715        56.35898        -0.87303
C         47.66792        58.50203        -1.18024
C         46.41707        59.28192        -1.54590
C         47.57932        61.25690        -0.43059
C         46.38106        60.64820        -0.88746
C         47.52499        62.68085        -0.05453
C         46.31699        63.44119        -0.37724
C         47.63799        65.62374        -0.22046
C         46.30754        64.91530        -0.03998
C         47.62773        67.07421        -0.38391
C         46.42543        67.80357        -0.58775
C         47.62614        69.91544        -0.57996
C         46.41957        69.20501        -0.69841
C         47.64167        71.39467        -0.91269
C         46.34661        72.08296        -0.55499
C         47.59255        74.20819        -0.21519
C         46.36324        73.50085        -0.28518
C         48.88024        38.08895         1.91242
C         50.20348        40.02661         1.23669
C         48.91801        39.45967         1.64335
C         50.53537        41.34691         1.42647
C         48.69142        42.43890         1.41565
C         50.12481        44.26906         0.51387
C         48.83602        43.65825         0.72878
C         50.11110        45.58364        -0.01468
C         48.89322        46.27015        -0.24776
C         50.14429        48.49183        -0.53845
C         48.85573        47.77812        -0.21350
C         50.13328        49.83981        -0.65528
C         48.85041        50.60808        -0.38409
C         50.16842        52.71942        -0.82314
C         48.90448        52.04391        -0.83068
C         50.19631        54.20993        -0.53904
C         48.87996        54.90358        -0.81891
C         50.17816        57.07079        -0.99002
C         48.89644        56.40101        -0.55985
C         50.17856        58.55828        -1.22823
C         48.87937        59.24470        -0.92009
C         50.05819        61.15935         0.19873
C         48.82775        60.56097        -0.46881
C         50.08944        62.69509         0.26165
C         48.79200        63.46012         0.21909
C         50.10719        65.60059        -0.20661
C         48.81926        64.92848        -0.05362
C         50.11518        67.06800        -0.28681
C         48.85016        67.79194        -0.31440
C         50.06680        69.96560        -0.13577
C         48.82504        69.20866        -0.37353
C         50.08277        71.43905        -0.31191
C         48.86924        72.12593        -0.42757
C         50.07822        74.23398        -0.07624
C         48.85096        73.54330        -0.26485
C         51.56489        42.19154         0.88347
C         52.62385        44.30174         0.36972
C         51.39987        43.55797         0.65159
C         52.64755        45.58286        -0.07708
C         51.37625        46.24860        -0.41276
C         52.66210        48.48137        -0.62684
C         51.39197        47.71791        -0.75353
C         52.63585        49.86982        -0.76045
C         51.34850        50.53724        -1.22902
C         52.64310        52.72431        -1.38091
C         51.35111        52.02991        -0.99112
C         52.64612        54.21586        -1.15079
C         51.32095        54.89882        -1.35125
C         52.63148        57.09747        -1.04615
C         51.35368        56.38955        -1.11818
C         52.61706        58.47822        -0.73447
C         51.40603        59.22058        -0.66195
C         52.61724        61.30352        -0.22668
C         51.36864        60.56115        -0.29090
C         52.61241        62.72024        -0.23233
C         51.35522        63.45251         0.01955
C         52.56614        65.58796        -0.70513
C         51.29409        64.90114        -0.24491
C         52.62614        67.02059        -0.16861
C         51.31320        67.74801        -0.30751
C         52.63218        69.93018        -0.27462
C         51.35516        69.20322        -0.09532
C         52.59887        71.43052        -0.50261
C         51.30196        72.13533        -0.19908
C         52.57604        74.26359         0.01940
C         51.31505        73.55678        -0.09745
C         53.92642        46.27786        -0.49150
C         55.04463        48.51669        -0.16750
C         53.88250        47.78917        -0.36399
C         55.05394        49.93962        -0.27451
C         53.83775        50.61971        -0.61114
C         55.06627        52.72900        -0.74802
C         53.87178        52.02776        -0.84371
C         55.10495        54.16119        -1.12339
C         53.82460        54.92056        -1.10959
C         55.11396        57.08175        -0.96093
C         53.85701        56.36388        -1.03597
C         55.09095        58.46391        -0.73443
C         53.85796        59.10889        -0.17282
C         55.07717        61.32627        -0.27165
C         53.84498        60.60734        -0.30748
C         55.05490        62.74017        -0.13553
C         53.83773        63.45554        -0.23397
C         55.07595        65.60941        -0.19982
C         53.84580        64.88250        -0.31580
C         55.12244        67.06885        -0.36477
C         53.83685        67.78340        -0.74027
C         55.08169        69.99604        -0.50122
C         53.80576        69.25331        -0.35887
C         55.09528        71.39668         0.01897
C         53.79207        72.12294         0.11291
C         55.06292        74.24903         0.26061
C         53.79528        73.60373         0.13049
C         56.25065        50.68167        -0.13541
C         57.49833        52.81583        -0.20950
C         56.28400        52.06632        -0.36816
C         57.57980        54.19014        -0.43046
C         56.40406        54.90687        -0.98448
C         57.58332        57.04876        -0.67942
C         56.38440        56.38497        -0.91862
C         57.66843        58.49557        -0.85394
C         56.28061        59.26931        -0.88175
C         57.58752        61.43109        -0.72489
C         56.31201        60.66457        -0.48655
C         57.57220        62.80608        -0.11649
C         56.28559        63.44759         0.32244
C         57.48889        65.65896         0.51987
C         56.26254        64.92524         0.07764
C         57.55087        67.09399         0.06215
C         56.31614        67.76419        -0.29043
C         57.69529        69.98769        -0.41693
C         56.36651        69.23527        -0.55407
C         57.59454        71.45039         0.03973
C         56.35428        72.15655         0.06865
C         57.59482        74.32560         0.30212
C         56.28387        73.55981         0.25700
C         58.74659        54.93894        -0.13508
C         59.96855        57.08005        -0.00707
C         58.79111        56.34189        -0.27756
C         60.02877        58.49706        -0.05066
C         58.84571        59.24915        -0.40105
C         60.03128        61.35384        -0.02757
C         58.83370        60.64071        -0.34099
C         60.02730        62.76750         0.05590
C         58.76969        63.48976         0.05958
C         59.98352        65.59088         0.42072
C         58.77867        64.90396         0.31412
C         59.97514        67.05780         0.49029
C         58.73382        67.77473         0.25108
C         59.99841        69.96957         0.44663
C         58.67076        69.25758         0.51534
C         60.02549        71.35571         0.48824
C         58.77004        72.08586         0.43236
C         60.05127        74.18895         0.89912
C         58.70969        73.49850         0.96977
C         61.21873        59.21084         0.22335
C         62.45317        61.34417         0.45430
C         61.25370        60.62116         0.20975
C         62.48672        62.74829         0.47586
C         61.24270        63.48449         0.28218
C         62.52365        65.65372         0.36230
C         61.22371        64.88078         0.38486
C         62.37434        66.97314         1.11614
C         61.15817        67.73586         0.65613
C         62.53663        69.92631         0.66927
C         61.22659        69.18927         0.42254
C         62.47246        71.37869         0.89243
C         61.27462        72.06590         0.70302
C         62.54026        74.27607         0.78530
C         61.22875        73.52031         0.82880
C         63.67004        63.45986         0.81638
C         64.82681        65.57522         1.33982
C         63.70898        64.86603         0.88881
C         64.84726        67.00894         1.43407
C         63.66687        67.75513         1.16127
C         64.86149        69.85803         1.57693
C         63.69688        69.15449         1.16890
C         64.85393        71.30932         1.62017
C         63.69507        72.04966         1.28253
C         64.89026        74.14390         1.62816
C         63.72821        73.47993         1.28624
C         66.01583        67.72007         1.80850
C         67.25549        69.79056         2.45976
C         66.01743        69.10922         1.92615
C         67.23979        71.29606         2.34017
C         66.05451        72.00300         1.98783
C         67.27167        74.11759         2.30487
C         66.07231        73.43089         1.98224
C         68.40026        72.00149         2.63789
C         68.41885        73.41072         2.61412
O         44.53517        52.16456        -2.87929
O         51.35612        46.72549        -1.82895
O         50.87132        63.13694         1.42145
O         55.71153        69.70707        -1.80565
O         54.33486        71.47556         1.29491
O         55.94770        54.41269        -2.30184
O         31.92013        63.09425        -1.78821
O         62.14074        69.53563        -0.69005
O         37.02773        56.83415        -2.71232
O         47.95699        63.04439         1.35274
O         46.03951        54.82505        -2.81854
O         50.68026        69.60497         1.16853
O         33.49669        54.50320         0.86697
O         57.08213        58.97846        -2.08576
O         49.68589        42.05540         2.31168
O         46.37731        59.55940        -2.93130
O         45.43348        66.18645        -2.08499
O         41.11434        48.60492         1.39666
O         37.09058        63.12146         1.27434
O         31.31768        68.56233        -1.50195
O         52.78369        71.60146        -1.95020
H         51.94882        71.35566        -2.40229
O         44.04984        60.89369        -2.98723
H         44.91303        60.43359        -3.24112
O         28.60234        67.85264        -1.43499
H         29.41137        68.20060        -1.88210
O         33.93073        73.42955         2.24070
H         34.69640        72.93019         2.59503
O         28.41172        62.65422         2.60324
H         28.40600        63.58383         2.91895
O         35.49701        57.93011         0.99514
H         36.47733        57.86323         1.14023
O         45.13167        43.71549        -1.66030
H         45.82282        44.23401        -2.12557
O         45.27644        70.03691        -2.60692
H         45.26439        69.11931        -2.95739
O         38.88478        54.90034        -3.32265
H         38.14120        55.51692        -3.54971
O         50.32577        58.71875        -2.68790
H         51.21065        58.37657        -2.93658
O         52.46495        65.54817        -2.15314
H         53.07904        66.22828        -2.52568
O         46.24159        56.11800         0.58814
H         45.77895        56.89137         0.97697
O         47.72794        71.44294        -2.38206
H         46.88773        71.04278        -2.72531
O         58.33499        73.40382         2.37830
H         58.87145        72.69333         2.78787
O         57.35357        65.78277         1.99569
H         57.10439        64.87555         2.31298
O         40.51124        46.15346         2.41187
H         40.68380        47.12695         2.47246
O         52.85387        66.90279         1.26219
H         52.54081        67.72360         1.69942
O         33.78396        67.74170        -2.14677
H         32.90020        68.13616        -2.34712
O         49.94988        60.70652         1.58385
H         50.33717        61.41806         2.14543
O         36.46195        67.70829         1.46344
H         36.55640        66.76683         1.72821
O         48.08208        48.04329        -2.47292
H         47.59774        48.68053        -3.05045
O         53.85838        58.81738         1.28679
H         52.98779        59.10636         1.63633
O         41.43017        56.33333        -3.31040
H         40.61838        55.84172        -3.58913
O         62.80000        65.97492        -1.02533
H         62.90291        65.13519        -1.51929
O         50.52018        54.34655         0.86176
H         50.08342        55.17286         1.19316
O         48.47607        48.06102         1.17826
H         49.07085        47.55165         1.76817
O         34.58559        57.50877        -2.53336
H         35.36195        57.68174        -3.11510
O         57.68195        61.64158        -2.18259
H         57.58808        60.74551        -2.59181
O         42.57767        39.55521        -0.42684
H         43.32036        39.98001        -0.90717
O         32.78896        74.29029        -1.13590
H         32.73839        73.38681        -1.51146
O         58.17644        69.38907         1.88540
H         57.86968        68.51023         2.19776
O         62.44040        75.52725         1.46945
H         62.23027        75.34895         2.40862
O         37.60899        60.66275         1.26043
H         37.11749        61.36060         1.76583
O         42.78858        54.30390         0.42149
H         41.98448        53.87900         0.79091
O         38.80176        67.78787        -2.35621
H         39.56705        68.29374        -2.70448
O         40.43543        60.99009         1.11129
H         39.53816        61.03376         1.52008
O         51.26442        50.32131        -2.66827
H         51.93310        50.92564        -3.08060
O         62.10955        66.59323         2.50412
H         62.04261        67.40951         3.04178
O         53.76300        67.82252        -2.19781
H         54.49309        68.42607        -2.49134
O         48.90434        56.52302         0.91686
H         47.98923        56.27131         1.20648
O         48.66517        50.71786         1.07564
H         48.51277        49.79816         1.41477
O         68.43392        69.24646         1.84531
H         68.40357        69.45828         0.88993
O         57.97419        74.67310        -1.03774
H         58.09782        73.84507        -1.54646
O         38.67025        59.39591        -2.82660
H         39.47440        59.76970        -3.24737
O         43.58228        47.48467        -2.35114
H         43.65484        48.35216        -2.80521
O         52.70500        52.57328        -2.85208
H         52.01406        53.18852        -3.20792
O         58.30898        69.98867        -1.72295
H         57.59506        70.15730        -2.37783
O         33.85978        50.42822        -2.20116
H         34.64138        50.80353        -2.65717
O         45.97457        65.01301         1.37891
H         46.61241        64.42513         1.85284
O         46.56888        50.32280        -3.03308
H         45.84478        50.88391        -3.41451
O         54.12730        45.97464        -1.88783
H         53.29930        46.23941        -2.35371
O         23.84814        72.13721         0.18636
H         23.75946        71.23694        -0.19309
O         50.96277        54.70808        -2.76527
H         51.43525        55.38615        -3.29356
O         39.07931        65.03137         1.47222
H         38.38513        64.42341         1.82748
O         56.26877        63.27728         1.83197
H         55.34223        63.42648         2.12448
O         29.59801        73.11207         3.23325
H         28.85770        72.59937         3.62251
O         36.66722        61.13164        -2.28687
H         37.31905        60.52537        -2.72905
O         33.02455        67.15296         1.40346
H         32.38762        66.57204         1.86956
O         40.14128        52.38015        -2.98668
H         39.58881        53.08068        -3.40883
O         38.14182        58.13584         0.59454
H         38.22211        58.99901         1.07707
H         23.18285        75.09369         2.86229
H         25.59216        75.11505         2.34767
H         27.99500        75.11879         1.95120
H         30.44581        75.16062         1.31479
H         32.77099        75.22492         0.70194
H         35.35419        75.25471         0.62430
H         37.77282        75.26162         0.28467
H         40.22641        75.24972         0.15573
H         42.67528        75.23921         0.10841
H         45.12252        75.25067         0.05988
H         47.56841        75.29606        -0.05240
H         50.06120        75.32593         0.05792
H         52.55195        75.36364         0.04609
H         55.08258        75.34711         0.33840
H         57.46283        75.28152         0.86447
H         60.06840        75.28571         0.99662
H         62.74627        74.52627        -0.29471
H         64.90830        75.24359         1.61074
H         67.27864        75.21693         2.29587
H         22.21807        69.22478         2.46596
H         21.06885        71.33385         3.04154
H         21.10756        73.80369         3.27116
H         24.53295        64.98647         1.51386
H         23.34065        67.13019         1.88916
H         26.99423        60.69432         0.91579
H         25.78485        62.87428         1.40458
H         29.38280        56.46275         0.04653
H         28.16121        58.57933         0.35434
H         31.89564        51.96216        -0.58869
H         30.52759        54.43086        -0.73559
H         34.41345        48.00449        -0.07603
H         33.19011        50.08171        -0.28311
H         36.88147        43.91246         1.10617
H         35.66386        45.95771         0.54174
H         39.31803        39.69583         2.01233
H         38.08044        41.78335         1.49514
H         41.79106        35.52198         2.86500
H         40.54992        37.61224         2.46949
H         45.22169        32.28183         3.74010
H         43.05435        33.46522         3.42658
H         47.37882        33.45472         3.34600
H         48.61632        35.50743         2.69019
H         49.82454        37.52470         1.93937
H         50.90266        39.35716         0.71379
H         52.55440        41.75400         0.67591
H         53.57678        43.77804         0.54540
H         54.80033        45.86278         0.07015
H         55.99181        47.99191         0.02876
H         57.18098        50.15487         0.12466
H         58.39092        52.28232         0.15173
H         59.64003        54.41007         0.22978
H         60.87644        56.52815         0.27899
H         62.13978        58.65187         0.44597
H         63.38032        60.78326         0.64659
H         64.56415        62.88453         1.10371
H         65.73410        65.02080         1.62709
H         66.93728        67.16534         2.03912
H         67.33769        69.53598         3.55528
H         69.31291        71.44634         2.89657
H         69.34903        73.94439         2.85408
