         294
 CSIRO Nanostructure Databank - Neutral Graphene Oxide Data Set
C          1.58653         2.11956         1.25894
C          1.30469         3.50946         0.85328
C          2.70565         1.41260         0.91938
C          2.07988         4.58814         1.17510
C          1.00079         6.70817         0.47229
C          1.05765         8.10258         0.12164
C          2.10052         5.89185         0.44458
C          2.24708         8.70977        -0.16158
C          1.26355        11.09905        -0.08651
C          1.29581        12.25499         0.59273
C          2.46957        10.20551        -0.28232
C          2.47735        12.61105         1.46471
C          1.53534        14.88391         2.32309
C          1.59199        16.25939         2.30521
C          2.67753        14.07002         1.87216
C          2.76984        16.99310         1.98773
C          2.71483        18.37060         1.61003
C          3.82145         1.95416         0.15971
C          3.66125         3.38582        -0.26686
C          4.96689         1.25093        -0.14063
C          4.59448         4.34848         0.38610
C          3.34661         6.35848        -0.23102
C          3.44936         7.89087        -0.40835
C          4.65433         5.67224        -0.03248
C          4.80032         8.51504        -0.30148
C          3.65426        10.50311         0.68526
C          3.74856        11.99405         0.88563
C          4.89309         9.86771         0.10183
C          4.81409        12.70024         0.43607
C          3.94055        14.77660         1.52174
C          4.03147        16.25543         1.76466
C          4.69911        14.21101         0.33706
C          5.24216        17.00924         1.31876
C          3.81504        19.08191         1.20875
C          5.20542        18.54265         1.45099
C          6.23005         1.80349        -0.63025
C          6.34403         3.17335        -1.18043
C          7.41225         1.16096        -0.31015
C          7.32466         4.01859        -0.70182
C          5.88350         6.26706        -0.75373
C          5.98332         7.76546        -0.48588
C          7.22112         5.53008        -0.44749
C          7.22245         8.43458        -0.45497
C          6.11390        10.55122         0.06156
C          6.18278        12.05248         0.31383
C          7.27918         9.83095        -0.28031
C          7.13693        12.67511        -0.75560
C          5.99739        14.95132        -0.06882
C          6.22901        16.36007         0.40221
C          7.14046        14.21981        -0.74030
C          7.35070        17.05562         0.03970
C          6.32681        19.20982         0.71689
C          7.45630        18.50817         0.27387
C          8.65685         1.87877        -0.35853
C          8.61493         3.38817        -0.20042
C          9.88213         1.25829        -0.32382
C          9.77793         4.02845        -0.98749
C          8.41870         6.27220        -1.10631
C          8.53398         7.68251        -0.49260
C          9.76165         5.54164        -0.95485
C          9.62559         8.46174        -1.20339
C          8.58132        10.54438        -0.40975
C          8.52960        12.04387        -0.57356
C          9.74181         9.80092        -0.97132
C          9.73191        12.74447        -1.14324
C          8.40773        15.02770        -1.19338
C          8.56580        16.34554        -0.45398
C          9.70820        14.22453        -1.29961
C          9.81305        17.11558        -0.72528
C          8.60890        19.22064        -0.08905
C          9.77381        18.62917        -0.81715
C         11.12457         1.99122        -0.34095
C         11.12276         3.42796        -0.62982
C         12.31778         1.33534        -0.11000
C         12.28210         4.13608        -0.74527
C         10.90486         6.24008        -1.19811
C         10.68710         7.59629        -1.81675
C         12.30644         5.60002        -1.18489
C         12.36963         8.63606        -0.40792
C         10.94667        10.59139        -1.47609
C         11.07330        12.03132        -0.94853
C         12.29878         9.87934        -1.21353
C         12.26084        12.79131        -1.66451
C         11.01365        14.96672        -1.12631
C         10.99694        16.45673        -1.42569
C         12.32317        14.24345        -1.18703
C         12.30454        17.11277        -1.04002
C         11.08809        19.17472        -0.33749
C         12.27442        18.45376        -0.50324
C         13.56403         2.03609        -0.09317
C         13.61662         3.44023        -0.61550
C         14.71774         1.41173         0.32933
C         14.75454         4.23687        -0.04485
C         13.34894         6.34957        -0.21614
C         13.47063         7.81951        -0.56972
C         14.77100         5.72727        -0.32896
C         14.74910         8.58242        -0.45680
C         13.62099        10.57452        -1.47744
C         13.58083        12.07046        -1.36186
C         14.96867         9.82844        -1.28277
C         14.86197        12.83094        -1.31734
C         13.56748        15.03440        -1.41422
C         13.53033        16.42554        -1.24193
C         14.82997        14.30049        -1.65436
C         14.78175        17.29268        -1.39063
C         13.50449        19.02415        -0.06648
C         14.75524        18.45239        -0.38611
C         15.93894         2.14275         0.58461
C         15.87793         3.59976         0.39886
C         17.05837         1.50222         1.06318
C         17.14220         4.35566         0.58007
C         15.77375         6.48932         0.58200
C         15.91415         7.95854         0.18624
C         17.12122         5.81937         0.62526
C         17.28112         8.56202        -0.13022
C         16.14153        10.68220        -0.83042
C         16.18626        12.06435        -1.47452
C         17.24250        10.08368        -0.27369
C         17.34720        12.90173        -0.98807
C         16.16047        15.03481        -1.61577
C         16.12562        16.53493        -1.36726
C         17.38323        14.26829        -1.24667
C         17.32606        17.18738        -0.75069
C         15.89398        19.06022         0.10298
C         17.29048        18.61310        -0.18320
C         18.19861         2.25669         1.70099
C         18.35829         3.63587         1.10991
C         19.56390         1.60295         1.74008
C         19.41886         4.45180         1.71082
C         18.24110         6.52979         1.00378
C         18.35607         8.00814         0.79922
C         19.29012         5.80477         1.67625
C         19.69941         8.72983         0.71490
C         18.49729        10.82810        -0.07330
C         18.44231        12.24636        -0.33966
C         19.70335        10.12635         0.18179
C         19.50995        13.10464         0.08901
C         18.67358        15.06019        -1.14712
C         18.40183        16.27534        -0.17172
C         19.81302        14.29245        -0.52227
C         19.69603        17.07563         0.14124
C         18.16333        18.81601         1.02623
C         19.37085        18.16371         1.15333
C         20.66585         2.31580         2.02534
C         20.68795         3.81862         2.25762
C         21.92219         4.43672         1.57106
C         21.19779         6.81561         1.39452
C         20.98867         7.95782         0.65354
C         22.14941         5.72732         1.20848
C         22.00433         8.45067        -0.25740
C         21.03673        10.67858        -0.05336
C         21.34597        11.97522         0.31434
C         22.05359         9.77109        -0.56920
C         22.49172        12.82657         0.06652
C         21.13684        15.02054        -0.33245
C         20.83707        16.16424         0.68086
C         22.36772        14.17599        -0.02328
C         22.00440        17.00121         1.12353
C         20.39793        18.59524         2.03336
C         21.72564        18.11738         1.87247
O         15.53433        14.65034        -2.88520
O          3.19571         6.98567        -1.54852
O          5.20084        16.43864         2.67953
O         20.23964         6.55649         2.39529
O          9.60457        13.33128        -2.46492
O         11.27240         7.91334        -2.86047
O         18.19129         3.78798        -0.31892
O         20.36447        12.61536         1.08770
O         11.68784        14.56105         0.10881
O          8.85351        11.45462         0.70750
O         17.14634        17.20643        -2.19574
O          3.01273         3.67551        -1.27410
O         15.07638         8.83303         1.00137
O         14.16296        12.49971        -0.08253
O          6.05842        14.78161        -1.54070
O         18.84561         8.74860         1.93279
O          3.89261        14.04248         2.77352
O         14.02260         3.28318        -2.14829
O          9.60454        16.48728         0.57529
O         12.95426         9.85656        -2.53897
O          5.44052         3.58219        -2.09264
H          4.79409         2.87939        -2.30156
O          9.52495         3.68112        -2.37467
H         10.17194         4.16107        -2.93403
O          2.19919        11.95815         2.75218
H          2.82348        12.35968         3.39929
O          6.76665        12.35756         1.60313
H          6.21822        11.94118         2.30017
O          6.69483        12.26476        -2.05993
H          6.08099        12.95542        -2.39749
O         15.26347         5.92966        -1.66620
H         14.77487         5.30732        -2.25908
O         20.81377         4.05719         3.67696
H         20.71099         5.02736         3.80404
O          5.61114         6.11315        -2.16626
H          4.68631         6.44272        -2.32338
O         14.65711        17.89387        -2.70568
H         15.55739        17.91677        -3.10263
O         17.79314         2.48447         3.09058
H         17.94532         1.65681         3.59206
O          8.14712        15.46430        -2.54529
H          8.28993        14.69119        -3.13649
O         12.79975         6.15216         1.11347
H         13.56500         6.21715         1.74772
O          3.41931         9.79994         1.92257
H          2.78089        10.34578         2.45148
O          5.50750         3.78937         1.21593
H          6.19747         4.48613         1.42758
O         20.34114        15.48786         1.87609
H         20.46121        16.09562         2.63721
O         15.28412         2.62810        -2.21270
H         15.05612         1.66611        -2.20351
O          8.21911         6.41592        -2.52265
H          7.25864         6.28223        -2.72973
O          7.31980         5.68735         0.99867
H          8.20076         5.33547         1.28525
O         12.78474         5.64633        -2.54027
H         12.49771         6.51099        -2.92926
O         17.86862        19.47850        -1.23299
H         17.47045        19.17924        -2.08374
O          2.95844        10.47792        -1.62117
H          2.31266        10.11838        -2.26422
O         17.67352         8.06213        -1.43587
H         16.96457         8.30122        -2.08170
O          3.73863        14.47485        -0.73289
H          4.23024        14.43048        -1.58618
O          5.49166        18.90816         2.84231
H          5.45632        18.06132         3.35689
O         16.41865        11.86055        -2.89079
H         16.07714        10.96736        -3.14100
O         15.37688         9.35497        -2.61106
H         14.55243         9.03771        -3.05735
O         12.10836        12.87465        -3.08333
H         11.61800        12.07054        -3.39515
O          2.95287         4.52419         2.22727
H          2.93181         3.61924         2.60313
O          8.88124         3.64415         1.21318
H          8.28804         3.06642         1.73796
O         19.01872        15.55049        -2.44504
H         19.61707        16.32893        -2.31628
O          8.99093         7.53465         0.87921
H          9.01010         8.42646         1.28796
O         11.40736        11.90821         0.43228
H         11.53829        12.81439         0.80353
O         17.83821        15.75947         1.04110
H         18.58561        15.40092         1.58830
O         15.28503         6.44459         1.95529
H         15.25501         7.37845         2.27498
O         20.12066        17.72814        -1.07227
H         19.52001        18.50315        -1.22207
O         10.72032        10.65247        -2.90006
H         10.87465         9.73904        -3.25715
O         11.42272         8.34354         0.49526
H         11.71573         7.52006         0.98306
O         10.82217        16.61543        -2.86327
H         11.67284        16.40361        -3.30478
O         21.51091        15.64698        -1.57965
H         21.50459        14.96310        -2.28107
O          9.60393        18.99374        -2.22851
H         10.00330        18.27590        -2.77975
H          0.76656         1.55992         1.74603
H          0.54594         3.63296         0.06404
H          2.77586         0.35703         1.22977
H          0.07250         6.33858         0.93283
H          0.14871         8.70673         0.25785
H          0.36461        10.84709        -0.67415
H          0.40850        12.90710         0.62186
H          0.59006        14.37565         2.56076
H          0.67735        16.83170         2.52502
H          1.72408        18.85154         1.58751
H          5.02789         0.20686         0.21464
H          3.70470        20.13167         0.90048
H          7.40026         0.12096         0.05318
H          6.38751        20.30627         0.79680
H          9.93577         0.15824        -0.31175
H          8.60192        20.31410         0.04163
H         12.31115         0.26643         0.15367
H         11.13095        20.18363         0.09945
H         14.67690         0.34946         0.61924
H         13.48062        19.95140         0.52597
H         17.02435         0.40789         1.19440
H         15.77556        19.96027         0.72734
H         19.63768         0.51329         1.58963
H         17.92447        19.66075         1.69006
H         21.63466         1.79480         2.10016
H         22.73226         3.72099         1.34851
H         23.08877         5.95388         0.67767
H         22.81554         7.77642        -0.56668
H         22.89947        10.18760        -1.13457
H         23.49498        12.37450         0.00464
H         23.30240        14.74495        -0.16093
H         23.03444        16.64091         0.99962
H         20.20443        19.44609         2.70208
H         22.54482        18.66985         2.35678
