         276
 CSIRO Nanostructure Databank - Neutral Graphene Oxide Data Set
C        -11.16264         0.57845        -0.29366
C        -10.20155         1.49993         0.44850
C         -8.86327         0.75694         0.73492
C         -7.54928         1.53596         0.76209
C         -6.24769         0.71983         0.60186
C         -5.08044         1.41360         0.49327
C         -3.77166         0.72425         0.70313
C         -2.56443         1.43453         0.11833
C         -1.21607         0.72282         0.25515
C          0.02819         1.47812         0.52157
C          1.25160         0.76207         1.00869
C          2.56520         1.33909         0.46231
C          3.78489         0.88746         1.30777
C          5.13159         1.61164         1.29140
C          6.32287         0.76931         0.97716
C          7.58518         1.51566         0.66842
C          8.67564         0.79577        -0.05831
C          9.96382         1.56184        -0.32803
C         11.18289         0.74338        -0.50389
C        -10.12711         2.82290        -0.31637
C         -9.32020         3.86399        -0.17065
C         -7.32945         2.61361        -0.29283
C         -6.31125         3.63885         0.17717
C         -5.04737         2.92139         0.71828
C         -3.76189         3.67308         0.32366
C         -2.47853         2.91972         0.42029
C         -1.29869         3.59833         0.42595
C          0.01157         2.95387         0.86451
C          1.26839         3.54061         0.22020
C          2.41921         2.81953         0.05853
C          3.50268         3.41575        -0.78761
C          5.22349         3.07341         1.04373
C          6.28223         3.65448         0.28695
C          7.60636         3.00506         0.49476
C          8.89279         3.75071         0.24071
C         10.04471         2.97092         0.05267
C         -8.83396         5.09997        -0.15672
C         -7.61324         5.65170        -0.91222
C         -6.31957         5.01354        -0.39067
C         -5.03841         5.54708        -1.02484
C         -3.77940         5.02599        -0.34164
C         -2.45328         5.60136        -0.77889
C         -1.25287         4.96269        -0.17004
C         -0.02294         5.74519         0.21089
C          1.18334         4.94407        -0.26257
C          2.41377         5.68385        -0.69143
C          3.66336         4.90624        -0.73169
C          4.88743         5.50716        -0.68654
C          6.10145         4.66740        -0.66748
C          7.85574         6.04291         0.65944
C          8.98496         5.14933         0.41588
C         -7.46995         7.14445        -0.62316
C         -6.28102         7.79797        -0.66994
C         -5.04901         7.12144        -1.23881
C         -3.73667         7.74887        -0.74453
C         -2.46947         7.07300        -1.23438
C         -1.17983         7.84142        -0.89132
C          0.03398         7.15236        -0.35522
C          1.28724         7.92530         0.01730
C          2.48932         7.20924        -0.69511
C          3.78007         7.75751        -0.11751
C          5.03549         6.96146        -0.29488
C          6.32593         7.68643        -0.67243
C          7.65379         7.14278        -0.15518
C         -6.17668         9.23716        -0.43452
C         -5.00258         9.91154        -0.40650
C         -3.69571         9.21704        -0.44683
C         -2.43190         9.96091        -0.61095
C         -1.20613         9.32715        -0.76142
C          0.04876        10.01118        -0.73546
C          1.28900         9.36617        -0.45877
C          2.53831         9.96394        -0.51889
C          3.76724         9.28967         0.06375
C          5.08821         9.89492        -0.34793
C          6.21026         9.19365        -0.56377
C        -11.14922        -0.75764        -0.24269
C        -10.12363        -1.55536         0.52022
C         -8.84487        -0.73963         0.77252
C         -7.55880        -1.50211         0.58638
C         -6.25944        -0.76940         0.53459
C         -5.00101        -1.54247         0.76065
C         -3.73325        -0.75718         0.89618
C         -2.38133        -1.49201         0.93179
C         -1.18408        -0.80438         0.21606
C          0.06415        -1.50170         0.80627
C          1.21068        -0.70476         1.31924
C          2.51477        -1.41380         1.68806
C          3.81703        -0.62960         1.61667
C          5.20551        -1.31280         1.78056
C          6.34525        -0.58827         1.08471
C          7.70754        -1.29328         1.05387
C          8.56248        -0.75203        -0.13819
C          9.94812        -1.39280        -0.19080
C         11.14960        -0.60634        -0.44097
C         -9.84015        -2.89258        -0.11296
C         -8.77307        -3.67630         0.26549
C         -7.64748        -2.94948         1.10569
C         -6.26913        -3.74485         1.09688
C         -5.01748        -2.90437         0.75398
C         -3.69779        -3.67751         0.81596
C         -2.46143        -2.89916         0.36960
C         -1.13242        -3.64382         0.41900
C          0.08559        -2.86968         0.81825
C          1.20063        -3.67077         1.41371
C          2.46065        -2.95483         1.98632
C          3.82520        -3.63085         1.66748
C          5.12715        -2.85216         1.52954
C          6.28190        -3.50920         0.83491
C          7.59505        -2.81890         0.88291
C          8.78990        -3.52078         0.25297
C         10.01120        -2.73800        -0.06831
C         -8.75832        -5.07865         0.11305
C         -7.55892        -5.84016         0.19467
C         -6.30464        -5.02146         0.25641
C         -5.02753        -5.69423        -0.10720
C         -3.66573        -5.00575        -0.08030
C         -2.46948        -5.81718         0.39532
C         -1.18554        -5.10234         0.50293
C          0.12065        -5.79699         0.27892
C          1.21560        -5.16645         1.17572
C          2.54414        -5.89227         1.24799
C          3.83961        -5.10673         1.27959
C          5.06348        -5.69952         0.62716
C          6.21152        -4.79333         0.31919
C          7.29063        -5.31892        -0.50508
C          8.50369        -4.70559        -0.55406
C         -7.51509        -7.19167        -0.07612
C         -6.22998        -7.97206         0.02369
C         -5.00722        -7.16544        -0.40303
C         -3.71888        -7.91168        -0.42565
C         -2.47993        -7.31257         0.18161
C         -1.21312        -8.19272         0.28972
C          0.06578        -7.31950         0.34565
C          1.25382        -7.94103         0.50950
C          2.56808        -7.29856         0.74758
C          3.76047        -7.98899         0.05689
C          5.04497        -7.10578         0.04787
C          6.12103        -7.51987        -0.89797
C          7.01279        -6.44770        -1.47385
C         -6.21421        -9.34556        -0.60323
C         -5.04950       -10.00433        -0.81154
C         -3.74614        -9.38638        -0.60653
C         -2.55823        -9.99810        -0.89342
C         -1.26233        -9.34828        -0.73038
C         -0.17991        -9.88870        -1.36806
C          1.17879        -9.46231        -1.02974
C          2.15806        -9.01169        -1.84724
C          3.45379        -8.31892        -1.44777
C          4.62648        -9.10271        -2.01779
C          5.87821        -8.71113        -1.76215
O          1.46492         5.13810        -1.67475
O         -3.71952         0.18354         2.04145
O         -2.76862        -6.74420         1.49556
O          4.27247         1.51099         2.51594
O          3.09176        -0.78195         2.86632
O         -6.95146        -1.28217        -0.70735
O         -8.17605        -2.90996         2.37438
O          4.74037        -3.47370         2.79653
O         -5.82569        -4.93422        -1.11964
O         -8.94058         0.01895         2.01174
O         -7.48828         2.42367        -1.49171
O         -1.79522        -3.21177        -0.83177
O         -3.64777         8.14127         0.63527
O          0.69390        -4.64079         2.40151
O          6.24434        -7.82391         0.51751
O         -6.53257         4.80403         1.03918
O         -1.55398         4.82406        -1.61866
O         -4.32062        -7.37133        -1.67131
O          7.81720         2.38996         1.83431
O          2.64052        -7.00925         2.18699
O          8.90629         1.38792        -1.35178
O          4.26881         2.69735        -1.43298
O          1.00253         0.33310         2.35702
O          4.41381         7.11399         1.02718
O         -3.37037        -3.94793         2.13385
O          7.83326        -1.03432        -1.28035
O         -3.76511         4.93618         1.09920
O         -0.14013         7.29658        -1.79444
O         -0.33341         1.23038        -0.85376
O          4.83832        -5.79822         2.07110
O          1.34340        -9.32971         0.36835
O          8.53743        -3.59505         1.69463
O          2.28420        -3.06141         3.39861
H          3.17123        -3.03398         3.82188
O         -4.99752         4.92716        -2.32625
H         -5.86837         5.10060        -2.76125
O         -2.04815        -1.66125         2.31062
H         -2.57534        -2.45028         2.63883
O         -7.72001         5.42285        -2.32818
H         -8.46113         5.95755        -2.67931
O         -2.53064         7.04550        -2.67726
H         -1.78041         6.47693        -2.97034
O        -10.80419         1.80396         1.72136
H        -10.61265         1.03874         2.31237
O         -0.03545         5.78477         1.65368
H          0.50014         6.56364         1.95634
O         -1.30930        -8.86323         1.56139
H         -1.58322        -8.19250         2.22787
O          6.37988         7.39940        -2.12984
H          6.99540         8.04288        -2.54338
O         -1.26837        -1.06770        -1.19430
H         -0.66016        -0.44135        -1.64856
O          4.31406         3.80948         1.64865
H          3.82628         3.20005         2.27729
O          3.44726        -6.99927        -2.08889
H          3.11421        -7.10839        -3.00513
O          4.03338        -9.21510         0.72005
H          4.37791        -9.00744         1.61390
O         -5.99849        -8.16099         1.46109
H         -6.79379        -8.57930         1.85229
O          6.32605        -5.92111        -2.63127
H          5.35829        -6.04580        -2.50514
O          1.48628         7.89531         1.44339
H          2.18558         8.56884         1.67965
O         -6.07087        -4.20105         2.43394
H         -6.77567        -3.74679         2.97618
O          2.52961         7.61794        -2.07217
H          1.65483         7.39353        -2.47067
O          2.75531         0.58851        -0.76812
H          3.36717         1.10316        -1.35485
O          3.67081         9.51188         1.51633
H          4.34374         8.92354         1.93235
O          7.02132         4.85732        -1.60021
H          6.81650         5.68674        -2.11915
O          0.52255        -5.43625        -1.09346
H         -0.27587        -5.43414        -1.66511
O          0.13582         3.10280         2.28915
H         -0.07384         4.04396         2.50456
O        -10.67248        -1.90903         1.81749
H         -9.89672        -2.27137         2.33537
O         -2.88426         1.44558        -1.30156
H         -2.08256         1.75224        -1.78368
O         -5.07127         3.01123         2.15401
H         -5.28699         3.94619         2.37560
O          6.98912         5.75026         1.66173
H          7.33391         5.00043         2.18841
O         -3.38731        -4.73263        -1.45378
H         -4.23359        -4.47223        -1.88793
O          8.36083        -0.96742         2.28225
H          7.79641        -1.29033         3.01984
O         -7.52561         2.19943         2.03240
H         -7.73050         1.52899         2.72081
O          5.58452        -1.14798         3.16560
H          4.76863        -1.27311         3.70579
O         -5.15230         7.38168        -2.64969
H         -4.31626         7.06386        -3.07190
H         12.08958        -1.16947        -0.55600
H         12.13726         1.26779        -0.66032
H         11.03448         3.44474         0.12924
H          9.91557         5.62231         0.06487
H          8.45668         7.29528        -0.89699
H          7.14241         9.74211        -0.77708
H          5.14299        10.99517        -0.34164
H          2.63462        11.01188        -0.83889
H          0.04373        11.10778        -0.83016
H         -2.46374        11.05680        -0.51595
H         -4.99996        11.00453        -0.27810
H         -7.11934         9.79318        -0.31329
H         -8.36857         7.69803        -0.30237
H         -9.28998         5.80012         0.56975
H        -10.91949         2.94386        -1.08221
H        -11.97800         1.07324        -0.84614
H        -11.93879        -1.32692        -0.75950
H        -10.57288        -3.29635        -0.83278
H         -9.71954        -5.61072         0.02237
H         -8.45461        -7.73325        -0.27361
H         -7.17379        -9.84912        -0.79772
H         -5.06582       -11.04003        -1.18493
H         -2.55731       -11.04258        -1.24337
H         -0.33551       -10.69173        -2.10682
H          2.00327        -9.08525        -2.93589
H          4.42349        -9.98567        -2.64195
H          6.74780        -9.24902        -2.16977
H          7.98377        -6.88128        -1.82673
H          9.26072        -5.04105        -1.27899
H         10.96649        -3.27824        -0.16888
