         261
 CSIRO Nanostructure Databank - Neutral Graphene Oxide Data Set
C        -11.23801         0.63121        -0.31873
C        -10.17135         1.43108         0.31658
C         -9.02965         0.69975         0.99658
C         -7.74880         1.46729         1.19720
C         -6.47082         0.69540         1.26406
C         -5.13800         1.39024         1.36276
C         -3.83945         0.64688         1.34863
C         -2.53691         1.46673         1.43151
C         -1.27608         0.91725         0.85534
C         -0.00004         1.64728         1.17933
C          1.24006         0.78397         1.29237
C          2.56072         1.51699         1.36844
C          3.80462         0.68921         1.13796
C          4.98785         1.40739         0.53675
C          6.29957         0.66977         0.33178
C          7.56376         1.40601         0.03320
C          8.87350         0.68695         0.09907
C         10.12111         1.44638        -0.29825
C         11.21755         0.62895        -0.87212
C         -9.95000         2.80785        -0.15986
C         -8.83027         3.55577         0.12923
C         -7.71255         2.99258         0.99420
C         -6.35745         3.47020         0.47484
C         -5.06232         2.83140         0.94814
C         -3.80302         3.62481         1.16088
C         -2.56084         2.95850         1.71272
C         -1.31525         3.82897         2.01733
C          0.01044         3.04707         1.81678
C          1.30148         3.81797         1.66396
C          2.59029         3.02259         1.35223
C          3.75024         3.71755         0.69174
C          4.93021         2.87683         0.23531
C          6.20547         3.56656        -0.31333
C          7.55308         2.93279         0.35193
C          8.80922         3.63560        -0.30231
C          9.94833         2.86253        -0.60141
C         -8.71769         4.88883        -0.37927
C         -7.49411         5.58127        -0.47556
C         -6.25401         4.83543        -0.10523
C         -5.01541         5.65681         0.17246
C         -3.81122         5.11032         0.89025
C         -2.45857         5.75192         0.62972
C         -1.27096         5.30696         1.47750
C          0.01785         6.12931         1.47840
C          1.35031         5.35864         1.66783
C          2.71214         5.99819         1.46894
C          3.86581         5.19738         0.85831
C          5.24663         5.81291         0.73896
C          6.32468         5.04724         0.03069
C          7.46037         5.76652        -0.71905
C          8.75817         5.01165        -0.50463
C         -7.35739         6.78032        -1.17806
C         -6.05381         7.31902        -1.54219
C         -4.84534         6.79290        -0.79062
C         -3.69795         7.79680        -0.54371
C         -2.41073         7.01054        -0.17719
C         -1.29152         7.98062         0.07725
C         -0.09739         7.58679         0.90247
C          0.89951         8.77551         0.97861
C          2.91455         7.46525         1.25889
C          3.40652         7.96953        -0.02276
C          5.55440         7.29536         0.95631
C          6.39482         7.97313        -0.07537
C          7.45739         7.27924        -0.56734
C         -5.88830         8.57772        -2.29784
C         -4.65590         9.09703        -2.52005
C         -3.47840         8.67618        -1.77162
C         -2.26753         9.27872        -1.90424
C         -1.29751         9.29850        -0.73992
C          0.09404         9.76128        -1.11271
C          1.15613         9.53170        -0.30362
C          2.48374        10.14152        -0.48869
C          3.63029         9.44281        -0.23190
C          4.95649        10.01624        -0.40419
C          6.16753         9.39204        -0.34502
C        -11.26873        -0.70860        -0.22219
C        -10.20943        -1.50863         0.43765
C         -9.00188        -0.82728         1.05165
C         -7.67500        -1.59944         1.07902
C         -6.40194        -0.80271         1.04583
C         -5.16596        -1.20977         0.22554
C         -3.83403        -0.79405         0.89313
C         -2.54731        -1.38330         0.41900
C         -1.36991        -0.44386         0.12200
C          0.00299        -1.17461         0.03102
C          1.19508        -0.65709         0.81267
C          2.46227        -1.50647         0.70221
C          3.75930        -0.79934         0.97742
C          5.07980        -1.52387         0.74142
C          6.38222        -0.78182         0.68979
C          7.71450        -1.49374         0.49363
C          8.73320        -0.79247        -0.38966
C         10.04911        -1.54069        -0.51225
C         11.18331        -0.72684        -0.94244
C        -10.08988        -2.89366        -0.03385
C         -8.92813        -3.62359         0.05831
C         -7.63534        -3.06900         0.62085
C         -6.48714        -3.43138        -0.29914
C         -5.22046        -2.64067        -0.31766
C         -3.90663        -3.27496        -0.74582
C         -2.59705        -2.55990        -0.54290
C         -1.27894        -3.27192        -0.87452
C          0.03731        -2.56971        -0.55673
C          1.33647        -3.39708        -0.78076
C          2.51079        -2.85928         0.04083
C          3.83479        -3.53584        -0.27447
C          5.13930        -2.88173         0.12919
C          6.43480        -3.63917         0.25954
C          7.75824        -2.97900         0.61976
C          9.05718        -3.74904         0.31853
C         10.07473        -2.90455        -0.44934
C         -8.89902        -4.98841        -0.31748
C         -7.68526        -5.70953        -0.33939
C         -6.39011        -4.93734        -0.14802
C         -5.20297        -5.55859        -0.87625
C         -3.94465        -4.75241        -1.11554
C         -2.62420        -5.51468        -1.30719
C         -1.30663        -4.75066        -1.17895
C         -0.02379        -5.57794        -1.14772
C          1.22023        -4.91889        -0.59058
C          2.49331        -5.71424        -0.49305
C          3.83281        -5.01044        -0.52152
C          5.08767        -5.80287        -0.18718
C          6.35955        -5.13078         0.25523
C          7.64863        -5.86614         0.16238
C          8.81728        -5.21182        -0.04096
C         -7.65905        -7.08871        -0.30069
C         -6.41739        -7.84354        -0.54102
C         -5.18469        -7.07602        -0.96234
C         -3.87537        -7.80844        -0.99497
C         -2.60978        -7.02732        -1.25651
C         -1.32454        -7.83154        -1.19282
C         -0.03014        -7.07782        -1.28394
C          1.24454        -7.89553        -1.10168
C          2.53406        -7.16777        -0.85866
C          3.81340        -7.94942        -0.60477
C          5.14448        -7.26178        -0.56583
C          6.45117        -8.06476        -0.36553
C          7.55257        -7.35715         0.46149
C         -6.23466        -9.14570         0.13795
C         -5.02750        -9.71195         0.33259
C         -3.79539        -9.20234        -0.30858
C         -2.49373        -9.65772         0.14132
C         -1.28881        -9.22141        -0.54433
C          0.02519        -9.85670        -0.25011
C          1.19212        -9.31640        -0.66421
C          2.50372       -10.09533        -0.71685
C          3.62861        -9.32257         0.01885
C          4.94084       -10.05211         0.17307
C          6.15109        -9.47436         0.11383
O          3.46605         7.19842        -1.00031
O          5.41191        -5.67170         1.24982
O         -4.91716        -4.97242        -2.17151
O          6.04994        -3.00195        -1.00626
O          2.12921        -7.55987        -2.20924
O          0.26790        -1.36656        -1.37394
O         -6.22658         3.64473        -0.96914
O          2.28349        -2.75298         1.46393
O          0.97091        -0.31730         2.20892
O         -2.52463         1.98739         2.78357
O         -6.80197        -1.48835         2.24721
O         -7.26308        -3.93161         1.79065
O         -1.23063        -3.75007        -2.24564
O          5.86454        -1.27586         1.94141
O         -3.97965         8.63645         0.52252
O         -2.66749        -6.29608        -2.52608
O         -0.87218         6.11925         2.61467
O          3.36741         4.61212        -0.39198
O         -7.87949         3.51896         2.36460
O          4.45737         1.90469        -0.75462
O         -0.60179         1.81962        -0.12989
O          1.66209        -5.44336         0.69417
O         -3.35068        -2.37103        -1.76737
O          8.03039        -2.13098         1.77499
O         -1.26661         8.23252         1.50567
O        -10.09582         1.28049         1.78382
O         -1.40281        -9.00737        -2.01646
O         -6.20733        -4.91543         1.32742
O          6.32227         5.15523         1.48233
O         -4.78751         5.92139         1.59103
O          0.84200         3.28513         2.95350
O         -3.04656        -1.69360         1.74157
O        -10.04329        -1.36060         1.90050
O          6.77462         0.91777        -1.05160
O         -4.06979         2.95182        -0.12522
O          8.19571        -0.76176        -1.66509
O          1.14312         9.29154         2.05464
O          3.87797        -0.16659         2.29425
O          2.21870         5.74728         2.80091
O         -2.12048         5.74988        -0.81702
O         -6.18435        -2.69951        -1.46906
O          9.76141         1.04059         1.12018
O         -4.55211         0.90602         2.59453
O          4.59340        -7.73235        -1.82909
O          3.93582        -4.08143        -1.62066
O         -7.19941         1.06139         2.47854
O          5.42700         7.80244         2.06075
O          2.92244         2.29182         2.55907
O         -3.93904        -9.01889        -1.76242
O         -5.06249         6.30660        -2.10420
O          7.55433         3.05742         1.67564
O         -6.06469        -7.66478        -1.96833
O          0.11670        -6.21432        -2.44746
O          2.85718       -10.29512        -2.07982
H          2.82851        -9.42128        -2.53654
O         -7.73561         4.96971         2.27344
H         -7.63236         5.21319         3.22606
O         -1.47787         3.98930         3.43568
H         -0.61340         4.25303         3.82402
O          7.25611         5.68999        -2.16314
H          6.91266         4.79251        -2.39711
O          6.24604         3.36056        -1.71583
H          5.73611         2.53497        -1.91853
O          7.31884        -7.51832         1.86210
H          6.62109        -6.87852         2.13279
O         -1.75972        -0.08516        -1.21851
H         -1.10983         0.55835        -1.57935
O          7.05889        -8.20323        -1.66872
H          6.34159        -8.42990        -2.30442
O          3.10379        -9.07842         1.35433
H          3.84722        -8.84724         1.95046
O         -1.85557        10.31117         0.13369
H         -2.69459         9.91009         0.50688
O          3.13825         8.15670         2.37089
H          2.88089         7.62070         3.15666
O          1.65424        -3.21077        -2.16512
H          0.83947        -3.36122        -2.69721
O         -5.23669        -0.32988        -0.92397
H         -4.67352        -0.71255        -1.63919
O          9.75547        -3.93305         1.59006
H          9.51688        -3.16421         2.16244
H         12.06411        -1.25665        -1.33757
H         12.10368         1.16666        -1.24156
H         10.67807         3.29510        -1.30767
H          9.70263         5.56511        -0.63833
H          8.18006         7.80310        -1.21545
H          7.05542         9.98543        -0.61755
H          4.96068        11.08849        -0.65964
H          2.53375        11.18634        -0.83711
H          0.20565        10.39786        -2.00529
H         -2.10638        10.01504        -2.70880
H         -4.54669         9.96835        -3.18389
H         -6.77619         9.01365        -2.77839
H         -8.25682         7.34729        -1.46424
H         -9.61133         5.33521        -0.84337
H        -10.72584         3.24629        -0.80750
H        -12.01835         1.16629        -0.87978
H        -12.07185        -1.27292        -0.71960
H        -10.97760        -3.36342        -0.48372
H         -9.83969        -5.50511        -0.55401
H         -8.60352        -7.64977        -0.24073
H         -7.12213        -9.58242         0.61954
H         -4.94100       -10.62542         0.93919
H         -2.41206       -10.28145         1.04145
H          0.00409       -10.88759         0.13530
H          2.36532       -11.09704        -0.23983
H          4.86998       -11.11295         0.46256
H          7.03820       -10.09886         0.30360
H          8.52358        -7.85530         0.22407
H          9.73757        -5.81498        -0.11200
H         11.03456        -3.41120        -0.64794
