         618
 CSIRO Nanostructure Databank - Neutral Graphene Oxide Data Set
C         23.56884        69.55823         3.30048
C         23.54648        70.96841         3.46428
C         22.53402        71.63540         4.15489
C         23.70613        73.78631         4.09227
C         22.64045        73.01530         4.48413
C         25.73827        65.40280         1.78459
C         25.70640        66.79855         1.91120
C         24.63961        67.49374         2.50114
C         25.82679        69.67252         2.29919
C         24.63843        68.90590         2.67074
C         25.88358        71.08230         2.48225
C         24.63042        71.76273         2.85287
C         25.98308        73.93557         2.91087
C         24.69775        73.26125         3.15549
C         27.91925        61.23480         0.26721
C         27.94800        62.62975         0.47858
C         26.83149        63.32237         1.00165
C         28.09760        65.42456         1.02325
C         26.87211        64.70897         1.25719
C         28.17751        66.86217         1.47542
C         26.84093        67.57554         1.29503
C         28.13929        69.69864         1.55715
C         26.93181        69.00457         1.74913
C         28.25120        71.05152         1.96745
C         27.09049        71.80779         2.31219
C         28.18036        74.11469         1.87403
C         27.08909        73.28409         2.42759
C         30.28955        57.01466        -0.59272
C         30.25777        58.41989        -0.71595
C         29.06338        59.13993        -0.37671
C         30.15017        61.32568        -0.81405
C         29.01488        60.53164        -0.29457
C         30.25643        62.72336        -0.36548
C         29.18203        63.36252         0.23066
C         30.45440        65.53569         0.33687
C         29.24395        64.77876         0.56344
C         30.47988        66.93487         0.39217
C         29.30954        67.65226         0.84646
C         30.44907        69.84952         0.56206
C         29.28674        69.02664         0.96527
C         30.60994        71.18441         1.18903
C         29.58305        71.61256         1.98817
C         30.65244        74.25230         1.21844
C         29.49609        73.77433         1.95729
C         32.73281        52.73988        -0.51563
C         32.69881        54.09885        -0.81462
C         31.53050        54.87007        -0.62002
C         32.67872        57.00669        -1.09402
C         31.48481        56.28572        -0.78510
C         32.67380        58.40534        -1.22005
C         31.45977        59.11384        -1.06834
C         32.70569        61.30742        -1.27949
C         31.43930        60.57183        -1.24035
C         32.68817        62.75696        -1.17863
C         31.57524        63.37630        -0.39872
C         32.91920        65.56650        -0.35797
C         31.69779        64.81245         0.01995
C         32.89605        67.00195        -0.18088
C         31.70659        67.65176         0.12250
C         32.99155        69.82889         0.54236
C         31.70140        69.12952         0.16323
C         32.89695        71.33314         0.36331
C         31.78786        71.99944         0.85772
C         32.82156        74.24443         0.10728
C         31.71388        73.47408         0.82279
C         35.00302        48.32999        -0.75800
C         35.17195        49.69250        -0.59144
C         33.85720        50.45186        -0.53051
C         35.21005        52.59640        -1.16279
C         33.88359        51.91810        -0.89900
C         35.25184        54.06802        -1.08722
C         33.94803        54.76631        -1.27961
C         35.19423        57.01714        -1.10365
C         33.92703        56.26703        -1.36493
C         35.22426        58.46068        -1.44372
C         33.92457        59.10629        -1.64172
C         35.24220        61.36142        -1.52875
C         33.94055        60.65919        -1.68200
C         35.26121        62.75572        -1.36255
C         33.99662        63.51225        -1.27691
C         35.25969        65.68994        -1.24990
C         34.03999        64.92064        -0.81387
C         35.32095        67.04499        -0.61175
C         34.15930        67.72313        -0.27944
C         35.38541        69.84435        -0.30204
C         34.20234        69.14424        -0.04001
C         35.32985        71.30753        -0.50773
C         34.05336        72.05306        -0.21163
C         35.32738        74.15677        -0.14564
C         34.13510        73.51360        -0.01341
C         37.71377        44.15111        -0.43980
C         37.63003        45.50783        -0.28540
C         36.45132        46.18242        -0.82359
C         37.78668        48.47740         0.36813
C         36.00387        47.37649        -0.33847
C         37.67964        49.83820        -0.13202
C         36.44884        50.40695        -0.48878
C         37.67723        52.60040        -0.53944
C         36.51252        51.79479        -1.16285
C         37.70617        54.08143        -0.85476
C         36.44683        54.75925        -1.00964
C         37.73565        56.94416        -1.17987
C         36.45855        56.24426        -0.95437
C         37.72416        58.39193        -1.67373
C         36.41743        59.15934        -1.49942
C         37.70967        61.31402        -1.46383
C         36.45950        60.60527        -1.53174
C         37.73126        62.74796        -1.39661
C         36.50429        63.48178        -1.27757
C         37.78483        65.58880        -1.13725
C         36.54307        64.88833        -1.14429
C         37.83118        66.99292        -0.90094
C         36.63907        67.68081        -0.29879
C         37.82613        69.87612        -0.70100
C         36.60991        69.17156        -0.50546
C         37.82172        71.34234        -0.64495
C         36.60420        72.04665        -0.51068
C         37.80535        74.15416        -0.38459
C         36.58085        73.45432        -0.36907
C         40.14680        39.89693        -0.19000
C         40.09078        41.25705         0.16980
C         38.89769        41.99813        -0.09140
C         40.11955        44.09038         0.14011
C         38.89590        43.39030        -0.07479
C         40.11366        45.56214        -0.22700
C         38.84436        46.20459         0.39122
C         40.20722        48.43523         0.48649
C         38.91154        47.71269         0.26291
C         40.15841        49.85385        -0.02034
C         38.97316        50.50029        -0.30298
C         40.19048        52.71052        -0.29768
C         39.02303        51.91872        -0.84693
C         40.15166        54.15231        -0.39108
C         38.89674        54.80280        -0.74012
C         40.21028        56.93302        -1.13551
C         38.89911        56.24295        -0.99964
C         40.20497        58.42534        -1.26485
C         38.89594        59.13778        -1.01214
C         40.18348        61.25572        -1.43894
C         38.94968        60.60531        -1.36417
C         40.19237        62.69922        -1.73780
C         38.95917        63.46242        -1.48243
C         40.26775        65.59286        -1.36760
C         39.00906        64.86849        -1.36601
C         40.26716        67.01152        -1.22803
C         39.03564        67.72194        -1.01140
C         40.27997        69.91445        -1.22432
C         39.02502        69.15898        -0.88348
C         40.30433        71.36037        -0.75808
C         39.04292        72.06917        -0.66472
C         40.28756        74.30438        -0.48916
C         39.01908        73.48162        -0.52254
C         42.88535        35.94100        -1.51349
C         42.75705        37.18580        -0.80847
C         41.56102        37.85705        -0.81164
C         42.59876        39.77278         0.50863
C         41.34711        39.08247        -0.03097
C         42.50846        41.22470         0.88219
C         41.25580        41.97298         0.61795
C         42.59297        44.08846         0.42754
C         41.27418        43.38550         0.50008
C         42.68485        45.52566         0.00455
C         41.41925        46.30709         0.01916
C         42.71159        48.42308         0.18130
C         41.45397        47.66478         0.13052
C         42.63555        49.87722         0.09694
C         41.42854        50.55836        -0.05922
C         42.57332        52.74814         0.29672
C         41.36731        52.01285        -0.08955
C         42.55215        54.27105         0.29153
C         41.32300        54.92130        -0.18857
C         42.58049        57.06441        -0.39164
C         41.41732        56.30013        -0.56850
C         42.62936        58.46605        -0.70536
C         41.45002        59.17430        -1.02890
C         42.69329        61.27839        -1.25995
C         41.43611        60.57023        -1.23965
C         42.74440        62.68223        -1.39673
C         41.52586        63.44962        -1.68597
C         42.75493        65.57207        -1.26346
C         41.50589        64.89570        -1.42284
C         42.76581        66.99707        -1.12893
C         41.52196        67.72572        -1.12879
C         42.76713        69.80075        -0.61679
C         41.51863        69.11247        -0.93775
C         42.77602        71.32544        -0.52417
C         41.49527        72.05447        -0.66568
C         42.75921        74.14882        -0.76097
C         41.55709        73.49959        -0.63470
C         45.53247        33.71510        -2.93086
C         44.27123        34.16867        -2.52438
C         45.30919        36.33166        -1.73218
C         44.11942        35.41404        -1.87356
C         45.27649        37.13743        -0.44145
C         43.92111        37.65511         0.06653
C         45.08568        39.90406         0.43278
C         43.93336        39.17604         0.25948
C         45.05635        41.42164         0.50184
C         43.77931        41.96902         1.11533
C         45.00980        44.19647         1.22073
C         43.68246        43.48379         1.30395
C         44.89616        45.69550         1.30529
C         44.04260        46.25835         0.10152
C         45.24490        48.48407         0.35496
C         43.91925        47.76376         0.24480
C         45.13570        49.97489         0.52540
C         43.94613        50.58875        -0.17785
C         45.12064        52.86864         0.32332
C         43.88774        52.10271         0.01063
C         45.03407        54.30043         0.81920
C         43.82487        54.98137         0.23753
C         45.09286        57.13841         0.01395
C         43.77329        56.47286         0.32233
C         45.11363        58.46817        -0.40001
C         43.87966        59.18085        -0.70456
C         45.20553        61.18981        -1.44997
C         43.90505        60.52915        -1.07683
C         45.19534        62.68607        -1.32888
C         43.99535        63.39703        -1.31708
C         45.24136        65.55260        -1.28714
C         43.98428        64.84420        -1.28948
C         45.24238        67.00069        -1.18725
C         44.01398        67.70111        -1.07591
C         45.23661        69.85028        -0.90061
C         44.03620        69.11802        -0.88682
C         45.24167        71.30127        -0.86484
C         44.03564        72.02413        -0.77573
C         45.22841        74.14153        -1.01394
C         44.02386        73.45142        -0.87993
C         46.69344        34.44908        -2.68521
C         47.80561        36.40441        -1.70086
C         46.65347        35.69621        -2.00769
C         47.78803        37.56465        -0.84993
C         46.51442        37.90652        -0.14591
C         47.55263        39.97772         0.69746
C         46.40217        39.28435         0.39615
C         47.52488        41.38088         1.09768
C         46.28476        42.07819         1.09450
C         47.40988        44.18604         1.85942
C         46.20445        43.48850         1.33952
C         47.39307        45.69311         1.96023
C         46.22270        46.40530         1.44923
C         47.48153        48.68398         1.62488
C         46.18125        47.84723         1.38382
C         47.54407        50.02943         1.07700
C         46.31665        50.70433         0.74556
C         47.56532        52.85345         0.66359
C         46.36604        52.13058         0.58503
C         47.54378        54.30716         0.57493
C         46.33108        55.02567         0.51528
C         47.56131        57.12838         0.18811
C         46.31119        56.42298         0.26791
C         47.56022        58.52409        -0.07334
C         46.35940        59.20562        -0.40423
C         47.47848        61.43019        -0.26057
C         46.37635        60.58312        -0.73765
C         47.63187        62.80893        -0.70431
C         46.50775        63.37784        -1.56063
C         47.75166        65.57975        -1.58210
C         46.44437        64.86686        -1.40472
C         47.71127        67.03941        -1.23473
C         46.47378        67.72329        -1.15468
C         47.70165        69.86796        -1.07138
C         46.47644        69.15165        -1.03683
C         47.70471        71.30388        -1.07171
C         46.47183        72.01124        -1.00420
C         47.69831        74.13785        -1.16556
C         46.47393        73.44857        -1.06159
C         48.91627        38.22909        -0.46389
C         50.07461        40.05761         0.76182
C         48.85615        39.19635         0.70038
C         50.01952        41.39704         1.12119
C         48.74610        42.04551         1.35571
C         49.99725        44.20958         1.77523
C         48.74687        43.43068         1.84975
C         49.94070        45.67286         1.64467
C         48.71465        46.44058         2.05048
C         50.04503        48.63733         1.53026
C         48.76219        47.94692         1.89663
C         50.00296        50.01643         1.02267
C         48.79118        50.71658         0.92821
C         50.04259        52.86338         0.71985
C         48.80356        52.14840         0.72864
C         50.05127        54.28868         0.64404
C         48.78902        55.01196         0.53265
C         50.08256        57.11139         0.16505
C         48.77308        56.40277         0.39137
C         49.96279        58.57130         0.61340
C         48.85964        59.28213        -0.18894
C         50.01376        61.48521         0.26748
C         48.74871        60.73469         0.22516
C         50.04586        62.82957        -0.04941
C         48.84154        63.49581        -0.56528
C         50.12776        65.58928        -0.81879
C         48.92659        64.87854        -0.93126
C         50.16887        67.01161        -1.04182
C         48.92842        67.73221        -1.14527
C         50.17060        69.86698        -1.13601
C         48.93818        69.16382        -1.10958
C         50.17019        71.29805        -1.17569
C         48.93404        72.00917        -1.15085
C         50.17083        74.13416        -1.29074
C         48.93736        73.44929        -1.20046
C         51.22161        42.15714         1.25227
C         52.46277        44.28149         1.43963
C         51.21313        43.55040         1.47868
C         52.51214        45.65667         1.43446
C         51.24584        46.41169         1.36209
C         52.52226        48.51703         1.30267
C         51.31332        47.87942         1.42396
C         52.57275        49.96380         0.96931
C         51.27242        50.70490         0.76780
C         52.50430        52.85687         0.97827
C         51.28200        52.17296         0.82026
C         52.50566        54.28664         0.93742
C         51.28627        54.96286         0.71387
C         52.58006        57.14148         0.40520
C         51.27814        56.46126         0.86547
C         52.48883        58.63212         0.72106
C         51.28719        59.30887         0.65302
C         52.46526        61.54863         0.95227
C         51.14684        60.78693         1.00237
C         52.51027        62.89576         0.35194
C         51.30983        63.54596        -0.05456
C         52.57687        65.60020        -0.59351
C         51.34674        64.90842        -0.46839
C         52.62481        66.99347        -0.84770
C         51.39331        67.71231        -1.00337
C         52.63497        69.84821        -1.16255
C         51.40864        69.14847        -1.11658
C         52.63656        71.28808        -1.25699
C         51.40039        72.00355        -1.24437
C         52.64563        74.12324        -1.39746
C         51.40504        73.44057        -1.31709
C         53.74750        46.40742         1.43602
C         55.07067        48.53258         1.14747
C         53.76756        47.77832         1.33779
C         55.02394        50.02171         1.47074
C         53.77758        50.74042         1.31598
C         54.88028        52.90928         1.75640
C         53.71698        52.13198         1.31252
C         54.93710        54.35407         1.49545
C         53.73882        55.03592         1.13910
C         54.96397        57.16322         1.19520
C         53.77035        56.44276         1.01543
C         54.95386        58.61023         1.09210
C         53.73958        59.30536         0.95980
C         55.02597        61.45458         0.74559
C         53.75460        60.77323         1.02794
C         55.00436        62.82549         0.40355
C         53.76815        63.49320         0.13154
C         55.15265        65.57213        -0.52604
C         53.81141        64.81501        -0.50026
C         55.11824        67.04740        -0.67466
C         53.87253        67.71153        -0.86732
C         55.11184        69.81906        -1.12880
C         53.87643        69.12633        -1.05507
C         55.10517        71.24391        -1.49846
C         53.84940        71.99706        -1.38610
C         55.12463        74.13127        -1.41063
C         53.87089        73.42647        -1.43138
C         56.20446        50.70286         1.63305
C         57.45009        52.93568         1.77721
C         56.23462        52.13944         1.92203
C         57.42076        54.32901         1.75027
C         56.15990        55.04937         1.61040
C         57.40823        57.20001         1.54509
C         56.18117        56.46809         1.45718
C         57.39766        58.60740         1.46710
C         56.19729        59.32718         1.22247
C         57.45184        61.49340         1.03438
C         56.22577        60.74621         0.99077
C         57.43455        62.86221         0.84090
C         56.24638        63.56761         0.42749
C         57.41272        65.84505         0.55545
C         56.28140        64.93184         0.13701
C         57.59977        66.94569        -0.50159
C         56.32659        67.75233        -0.66645
C         57.58600        69.90807        -0.88708
C         56.34274        69.15590        -0.91586
C         57.63125        71.29213        -1.02887
C         56.42180        72.01573        -1.46153
C         57.58356        74.18389        -1.14654
C         56.35907        73.48852        -1.32138
C         58.63812        55.08064         1.74881
C         59.89692        57.19580         1.69211
C         58.66156        56.47925         1.68410
C         59.94533        58.59670         1.65192
C         58.66570        59.33641         1.69307
C         60.01591        61.47163         1.13661
C         58.71565        60.82951         1.44629
C         59.96241        62.84950         0.82871
C         58.69656        63.60609         1.01981
C         59.99196        65.74500         0.48273
C         58.71353        65.08862         0.80486
C         60.00450        67.13647         0.17162
C         58.81033        67.78295        -0.19815
C         60.06674        69.99255        -0.24047
C         58.83689        69.18062        -0.62524
C         59.95204        71.45229        -0.20010
C         58.81824        72.06429        -0.71375
C         60.02596        74.22153        -0.82666
C         58.79837        73.51913        -0.88664
C         61.14547        59.33657         1.66060
C         62.50233        61.38632         1.62965
C         61.23412        60.73978         1.42100
C         62.85669        62.62416         1.06392
C         61.09391        63.59941         0.46404
C         62.47225        65.69421         0.64557
C         61.20330        65.02795         0.55629
C         62.44800        67.13389         0.62168
C         61.24919        67.82425         0.33281
C         62.41294        70.07270         0.82817
C         61.17004        69.29080         0.47727
C         62.41495        71.57342         0.64780
C         61.13030        72.25490         0.19643
C         62.48182        74.20350        -0.49403
C         61.22547        73.60310        -0.40373
C         63.77778        63.62220         1.42961
C         64.86969        65.77824         1.14511
C         63.69617        65.00310         1.01912
C         64.90129        67.18584         0.96312
C         63.66238        67.89523         0.80308
C         64.89132        70.02828         0.76575
C         63.67577        69.31004         0.79282
C         64.89267        71.47138         0.68771
C         63.71182        72.25735         0.44738
C         64.90900        74.26108        -0.54295
C         63.71610        73.57958        -0.11000
C         66.11427        67.90889         0.98911
C         67.37818        70.01939         0.77339
C         66.14211        69.31497         0.85436
C         67.39876        71.42567         0.73435
C         66.14440        72.08704         0.87436
C         67.46617        74.22647        -0.54292
C         66.17442        74.01365        -0.00770
C         68.57741        72.20623         0.47191
C         68.58139        73.46254        -0.13625
O         59.91716        69.46753        -1.60710
O         26.62447        67.58640        -0.18619
O         34.33759        52.15675        -2.27767
O         49.54988        48.57077         2.96176
O         58.62309        60.28804         2.81260
O         50.33640        46.02769         0.25318
O         55.86862        71.53332        -2.72828
O         42.81234        44.43079        -0.98765
O         52.06179        50.18543        -0.39833
O         58.72311        64.52090         2.18055
O         30.44971        61.08698        -2.21857
O         61.52139        72.23159         1.61076
O         46.11403        36.72668         0.67878
O         46.41680        48.55847         2.62446
O         40.89052        63.07173        -2.97036
O         54.65371        64.86005        -1.70298
O         24.13721        72.74258         1.88568
O         30.87787        69.76925        -0.84874
O         35.72965        56.75953         0.25281
O         44.63018        52.77898        -1.07345
O         41.78126        38.95879         1.38342
O         62.13950        62.93131        -0.13739
O         53.14497        61.41029         2.25074
O         29.79573        72.70662         2.83303
O         33.08986        63.41178        -2.45108
O         33.87936        55.45827        -2.58377
O         34.39522        71.66054        -1.60106
O         47.92132        43.57684         3.07100
O         43.17510        41.28880         2.23648
O         36.63801        47.83286         0.83855
O         66.16236        73.41591         1.28106
O         42.77096        70.49813         0.69845
O         61.45263        69.67835         1.86065
O         47.76358        61.14124         1.18920
O         40.34613        57.58165        -2.46429
O         48.01294        46.09247         3.25983
O         42.42678        53.45649         1.55640
O         32.01187        63.72354         0.97719
O         33.81033        59.83407        -2.89333
O         55.39737        52.52597         3.06173
O         48.03719        65.54470        -3.03105
H         47.79453        64.63723        -3.34490
O         37.45195        52.51331         0.89503
H         38.18436        52.98116         1.34998
O         35.08198        65.93176        -2.69365
H         34.67011        65.13064        -3.08597
O         50.29543        56.99377        -1.26819
H         49.79009        57.71668        -1.71997
O         44.19559        50.32963        -1.60341
H         44.62550        51.15095        -1.95185
O         40.23091        75.34058        -1.48437
H         40.17525        74.91625        -2.36495
O         43.19916        43.73015         2.65253
H         42.97713        42.84499         3.04064
O         50.69462        60.82838         2.40235
H         51.51952        60.90960         2.94486
O         44.12923        46.09061         2.47070
H         44.45938        45.59433         3.25007
O         45.13611        37.36439        -2.76533
H         45.11613        36.91083        -3.63461
O         49.43552        58.53600         1.97247
H         49.64603        59.41439         2.39237
O         40.29272        48.54978         1.95790
H         40.17543        47.64194         2.32061
O         51.22209        56.65899         2.29996
H         50.45357        57.24739         2.51602
O         44.91167        54.27116         2.26879
H         44.63068        55.17465         2.54703
O         40.26414        70.04574        -2.71133
H         39.36050        70.33063        -2.96868
O         36.78485        51.53162        -2.56140
H         35.91060        51.50448        -3.02119
O         33.09355        69.59568         1.99802
H         33.88096        70.07686         2.32933
O         25.34199        68.22340        -0.41944
H         25.59490        69.07534        -0.85122
O         44.78364        45.99893        -1.09814
H         44.40789        45.17754        -1.49694
O         36.82292        67.48984         1.17657
H         36.03371        67.87808         1.61287
O         28.43392        66.82899         2.91172
H         29.27058        66.33928         3.05733
O         38.71011        59.05596         0.43094
H         37.83870        59.44890         0.65034
O         33.37662        50.33059         0.82449
H         34.13667        50.41798         1.43631
O         49.23051        59.34982        -1.60741
H         48.43756        59.64088        -2.10913
O         52.85316        57.01250        -1.01124
H         51.98958        57.05700        -1.49445
O         39.93650        45.62238        -1.67285
H         40.72997        45.20933        -2.07797
O         32.37703        74.53982        -1.23410
H         32.42258        73.71176        -1.75732
O         46.91267        63.09012        -2.96318
H         46.47102        62.23138        -3.21662
O         45.96895        48.30289        -0.90381
H         45.41493        48.73389        -1.59889
O         45.40110        60.86857        -2.93507
H         44.53245        61.01434        -3.37165
O         38.83406        45.87533         1.80297
H         37.99550        46.22465         2.17494
O         43.68049        37.05884         1.35726
H         44.56277        36.89546         1.76548
O         37.90096        58.35890        -3.10592
H         38.78780        57.95860        -3.28960
O         55.45773        48.39147        -0.23626
H         54.74247        48.76999        -0.78959
O         39.31494        51.87952        -2.26168
H         38.51952        51.53922        -2.73672
O         44.97727        41.87573        -0.89441
H         45.78874        41.57515        -1.35587
O         57.85995        66.24429        -1.75309
H         57.98873        66.91415        -2.45761
O         48.85599        38.36541         1.91387
H         48.10115        37.74096         1.84352
O         57.02512        66.49428         1.78595
H         57.30957        65.90097         2.51971
O         43.55464        56.74640         1.77903
H         42.67652        56.37251         2.01288
H         23.84387        74.79777         4.50154
H         26.01663        75.02929         3.03333
H         27.88137        75.00370         1.29868
H         30.68040        75.32142         0.94959
H         32.97415        75.23013         0.61636
H         35.36869        75.25237        -0.04520
H         37.80656        75.24879        -0.28023
H         40.32517        74.83663         0.50212
H         42.77049        75.24869        -0.78501
H         45.22505        75.24083        -1.05445
H         47.69410        75.23704        -1.21496
H         50.17225        75.23347        -1.33922
H         52.65047        75.22301        -1.42809
H         55.09524        75.23057        -1.36324
H         57.57876        75.28375        -1.18661
H         60.04842        75.28038        -1.12619
H         62.54420        75.20959        -0.93650
H         64.80973        74.97300        -1.37620
H         67.60327        74.96961        -1.34181
H         22.71882        68.96562         3.67170
H         21.68803        71.05849         4.55583
H         21.87805        73.44929         5.14711
H         24.86234        64.81340         2.09752
H         23.77810        66.92281         2.88206
H         27.02498        60.66820         0.56750
H         25.90189        62.76694         1.19605
H         29.36713        56.47740        -0.32801
H         28.18955        58.55823        -0.04660
H         31.87252        52.25060        -0.03761
H         30.60730        54.35048        -0.32316
H         34.00951        47.96397        -1.06722
H         33.10041        49.94176        -1.18154
H         36.85853        43.59731        -0.85724
H         35.94005        45.70650        -1.67366
H         39.28049        39.45457        -0.70426
H         37.98613        41.45329        -0.37737
H         41.96534        35.40563        -1.79687
H         40.73396        37.49217        -1.44052
H         45.61252        32.74070        -3.43290
H         43.38437        33.54016        -2.69038
H         47.67063        34.03424        -2.97264
H         48.78336        36.01239        -2.02131
H         49.89705        37.95377        -0.88022
H         51.05268        39.57869         0.60881
H         52.18224        41.65193         1.07502
H         53.39756        43.70181         1.41445
H         54.69415        45.84669         1.45682
H         55.87721        48.04576         1.75156
H         57.16128        50.16985         1.52402
H         58.41434        52.41323         1.68217
H         59.58997        54.53398         1.83051
H         60.83726        56.62513         1.73151
H         62.08836        58.78489         1.79492
H         63.20292        60.89897         2.32387
H         64.60727        63.35372         2.10147
H         65.81282        65.26651         1.39114
H         67.06287        67.36295         1.10123
H         68.31850        69.45127         0.72317
H         69.54582        71.69014         0.55990
H         69.56476        73.82436        -0.47783
