         272
 CSIRO Nanostructure Databank - Neutral Graphene Oxide Data Set
C        -11.14901         0.55376        -0.28671
C        -10.16332         1.29725         0.58329
C         -8.80717         0.57238         0.63411
C         -7.58068         1.46854         0.72671
C         -6.21027         0.87665         0.66218
C         -5.08443         1.46754         1.46425
C         -3.77909         0.74110         1.61357
C         -2.52570         1.54453         1.66880
C         -1.23158         0.77593         1.88421
C          0.00134         1.59791         1.60478
C          1.27163         0.85534         1.77921
C          2.59682         1.53220         1.56614
C          3.82704         0.71243         1.35104
C          5.05756         1.48166         0.99738
C          6.35810         0.75697         0.96555
C          7.50594         1.34174         0.19535
C          8.84941         0.70366         0.40698
C         10.06402         1.40736        -0.08320
C         11.19422         0.54455        -0.53445
C         -9.97496         2.72800         0.13486
C         -8.88880         3.49160         0.51832
C         -7.82178         2.83478         1.38461
C         -6.49272         3.63958         1.52035
C         -5.14543         2.95776         1.65998
C         -3.81378         3.70698         1.71713
C         -2.53007         2.94164         1.55583
C         -1.30671         3.67017         1.36637
C         -0.05127         2.97159         1.40374
C          1.22199         3.72939         1.21849
C          2.53600         2.98482         1.15976
C          3.57936         3.45029         0.18481
C          4.87233         2.69309         0.12254
C          6.08993         3.47170        -0.41085
C          7.42207         2.74000        -0.31381
C          8.66675         3.55061        -0.40044
C          9.97966         2.81764        -0.67374
C         -8.71148         4.79535        -0.00503
C         -7.48542         5.50240         0.06452
C         -6.45142         5.08254         1.07372
C         -5.15177         5.84613         1.15837
C         -3.84309         5.21980         1.63678
C         -2.53181         5.96706         1.41271
C         -1.27885         5.16144         1.20268
C         -0.19178         5.69286         0.24026
C          1.16055         5.14178         0.65225
C          2.36122         5.73551         0.00107
C          3.53545         4.86463        -0.43576
C          4.82677         5.61414        -0.09266
C          6.11330         4.89317         0.14223
C          7.43665         5.66034         0.26913
C          8.63294         4.89259        -0.25821
C         -7.22380         6.50839        -0.85214
C         -5.80086         6.91405        -1.07684
C         -5.05312         7.04125         0.23241
C         -3.83523         7.87229         0.23516
C         -2.56989         7.35230         0.82726
C         -1.43167         7.91003         0.03366
C         -0.14078         7.18888        -0.07045
C          1.05448         7.82876        -0.50374
C          2.27101         7.09020        -0.60542
C          3.56858         7.74422        -0.86732
C          4.88101         7.01903        -0.58512
C          6.15538         7.76945        -0.42021
C          7.32909         7.10081        -0.19952
C         -5.55188         8.04195        -2.04873
C         -4.45378         8.81295        -2.03012
C         -3.52617         8.91102        -0.83669
C         -1.99785         8.76936        -1.11629
C         -1.25209        10.05788        -1.26165
C          0.11774        10.19704        -1.10059
C          1.15811         9.26689        -0.82397
C          2.43960         9.89310        -0.86076
C          3.64144         9.20692        -0.87018
C          4.92144         9.85752        -0.88791
C          6.10225         9.19162        -0.67910
C        -11.02788        -0.73781        -0.66350
C         -9.89301        -1.59994        -0.34840
C         -8.69749        -0.86758         0.21801
C         -7.33122        -1.34691        -0.16989
C         -6.04713        -0.51267         0.12101
C         -4.82768        -1.27098         0.36920
C         -3.71096        -0.77383         1.28094
C         -2.39247        -1.22885         0.66006
C         -1.16084        -0.49186         1.02417
C          0.15067        -1.28732         0.92970
C          1.26588        -0.64577         1.74194
C          2.58101        -1.37294         1.82132
C          3.85254        -0.62815         1.60824
C          5.09583        -1.55546         1.48244
C          6.46472        -0.69575         1.42904
C          7.56208        -1.50048         0.69791
C          8.77070        -0.77977         0.09213
C         10.07752        -1.56860         0.27288
C         11.20302        -0.79340        -0.39972
C        -10.02633        -2.95156        -0.62571
C         -9.09890        -4.03332        -0.34126
C         -7.10233        -2.75550        -0.30935
C         -5.85787        -3.21916        -0.73548
C         -4.72612        -2.53443        -0.19055
C         -3.58090        -3.44070         0.19233
C         -2.25183        -2.66352         0.06491
C         -1.15244        -3.51644         0.66974
C         -0.00089        -2.78000         1.24906
C          1.26053        -3.54486         1.48003
C          2.65005        -2.89784         1.64953
C          3.61767        -3.40033         0.57856
C          4.79488        -2.47324         0.22223
C          6.00933        -3.26067        -0.44607
C          7.37510        -2.84285         0.07015
C          8.59037        -3.49958        -0.53941
C          9.86188        -2.93475        -0.34217
C         -9.14461        -5.38365        -0.60971
C         -7.95119        -6.24401        -0.38283
C         -5.78943        -4.56161        -1.30814
C         -4.77113        -5.43913        -1.00876
C         -3.52411        -4.77623        -0.53075
C         -2.29650        -5.54918        -0.21054
C         -1.19607        -4.89142         0.59370
C         -0.02299        -5.71810         0.91948
C          1.26016        -5.03191         1.25172
C          2.54561        -5.74587         0.96568
C          3.63628        -4.88307         0.35370
C          4.86111        -5.51790        -0.20683
C          5.94580        -4.77820        -0.55148
C          7.10679        -5.44425        -1.28913
C          8.43648        -4.77716        -1.08066
C         -7.54533        -7.19081        -1.29801
C         -6.09703        -7.61397        -1.61534
C         -4.92475        -6.92938        -0.88885
C         -3.70913        -7.73141        -0.49164
C         -2.31381        -7.06686        -0.43085
C         -1.41662        -7.65822         0.66006
C         -0.03559        -7.07335         0.66405
C          1.18264        -7.76062         0.03541
C          2.48535        -7.27128         0.71480
C          3.65213        -7.81306        -0.08499
C          4.81044        -6.97454        -0.51171
C          6.06482        -7.67469        -0.88548
C          7.18380        -6.94279        -1.10392
C         -5.95901        -9.11745        -1.68049
C         -4.86886        -9.82146        -1.36062
C         -3.66908        -9.28200        -0.61642
C         -2.35426        -9.72728        -1.27827
C         -1.17685        -9.76924        -0.67643
C          0.01442       -10.11581        -0.19506
C          1.22938        -9.29477        -0.03823
C          2.42053        -9.95124        -0.10943
C          3.79660        -9.32627         0.04577
C          4.87175        -9.84428        -0.88180
C          5.96897        -9.10936        -1.15829
O          7.71113        -2.72419         1.48497
O          2.19298         3.77111         2.31924
O         -3.83464         4.56300         2.91313
O          3.70736        -7.31654        -1.44478
O          2.99122        -3.93558        -0.61332
O          1.74078        -1.15452         3.01239
O         -1.82916        -8.28818         1.62271
O          9.76672         1.25825         1.37164
O          6.00864         1.66353         2.07666
O         -1.75302         8.43008         1.37246
O         -7.94787        -3.63358         0.35036
O          5.22103        -2.35739         2.59679
O         -1.81609        -0.25005        -0.25980
O         -5.01094         8.28036         1.00368
O         -6.20267         6.03767         2.14799
O         -6.72487         1.72284        -0.42929
O         -8.77249        -0.49907         1.63310
O         -1.52623         5.86220         2.45520
O          0.35973        -3.21302         2.58950
O          7.33007         1.59144        -1.23764
O          2.11449        -5.55408         2.34398
O          4.38186         7.12880        -1.94218
O          2.05822         1.35687         2.90786
O          5.89448        -2.75798        -1.86932
O          2.06269         5.98157         1.42513
O         -4.75388         0.84859         2.74416
O         -2.44169        -4.88025        -1.52683
O          3.82483         2.44946        -0.85911
O          5.24382         5.25272         1.25891
O         -6.62187        -0.61614        -1.21351
O         -4.66917        -7.31122         0.50841
O         -5.94438         3.35302         2.82523
O         10.40613        -1.70679         1.66879
H         10.39086        -0.80661         2.06382
O          7.71942         5.80028         1.69267
H          6.85065         5.85374         2.15643
O         -5.90240        -7.17375        -3.01962
H         -6.45188        -7.75188        -3.59117
O          1.12821        -7.26539        -1.31438
H          0.21370        -7.42633        -1.66151
O        -10.72835         1.33043         1.91631
H        -10.05540         1.75345         2.50356
O          6.80527        -5.32712        -2.74746
H          5.90745        -5.70257        -2.88569
O          4.30076        -9.67903         1.36033
H          3.67680        -9.29243         2.02139
O         -1.18901         0.33181         3.26411
H         -0.94509         1.09110         3.83462
O          5.89004         3.67207        -1.83666
H          6.08924         2.80834        -2.26863
O         -3.77760        -9.86748         0.68467
H         -3.19725        -9.36146         1.30574
O         11.08677         3.59483        -0.21844
H         11.08630         3.57529         0.76143
O         -3.79715        10.20657        -0.25119
H         -4.49842        10.06203         0.42976
O         -6.79890        -4.79557        -2.17837
H         -6.60519        -5.63379        -2.67905
O          4.25777        -1.54935        -0.73727
H          3.79564        -2.06965        -1.43215
O          0.60708        -1.21793        -0.43999
H         -0.17451        -1.41791        -1.01550
O          6.91485        -0.60151         2.77618
H          6.59204        -1.43359         3.21584
O          3.19491        -3.37844         2.88902
H          2.77553        -2.86689         3.61710
O         -5.12526         5.74354        -1.68978
H         -5.65038         5.46861        -2.47191
O         -3.78340        -3.86916         1.55333
H         -3.84130        -3.08771         2.15905
O         -1.66534        -7.27865        -1.71158
H         -1.87768        -6.47559        -2.25279
O         -3.78252        -1.44101         2.56469
H         -4.35097        -0.89164         3.15624
O         -1.90455        -2.46613        -1.32196
H         -2.59580        -1.91072        -1.73977
O         -7.18332        -6.03588         0.70376
H         -7.50654        -5.27618         1.22917
O         -8.37077         2.65394         2.69845
H         -7.62256         2.72837         3.34051
O          2.50624        -7.92343         2.00238
H          2.16474        -7.26991         2.66483
O          7.16413        -2.74493        -2.55238
H          7.18677        -3.65581        -2.97489
O         -1.90385        11.15933        -1.63117
H         -2.87157        11.07484        -1.44039
O         -0.53006         5.00175        -1.01402
H          0.16706         5.20383        -1.67522
O          3.35893         4.73757        -1.84817
H          4.12401         4.20843        -2.18916
O          8.54975        -0.70616        -1.34279
H          8.10323        -1.51443        -1.69923
H         12.08234        -1.36409        -0.73809
H         12.05083         1.05332        -1.00408
H         10.09057         2.71159        -1.78630
H          9.58553         5.44453        -0.30379
H          8.26422         7.68359        -0.17121
H          7.04680         9.75445        -0.66072
H          4.93565        10.94982        -1.01714
H          2.46766        10.99101        -0.93325
H          0.46770        11.22547        -1.28039
H         -1.85867         8.19097        -2.06298
H         -4.30317         9.55503        -2.83119
H         -6.23975         8.10966        -2.90737
H         -7.99012         6.77522        -1.59587
H         -9.47993         5.17436        -0.69669
H        -10.76794         3.19766        -0.46779
H        -12.06803         1.09748        -0.55492
H        -11.85116        -1.20079        -1.23103
H        -10.98200        -3.25476        -1.08521
H         -9.97577        -5.79029        -1.20383
H         -8.22146        -7.35229        -2.15459
H         -6.81492        -9.64300        -2.13696
H         -4.88369       -10.91401        -1.50135
H         -2.38703        -9.92038        -2.36789
H          0.13842       -11.17928         0.09011
H          2.40054       -11.04891        -0.21753
H          4.83655       -10.90503        -1.17359
H          6.80785        -9.56296        -1.70912
H          8.11569        -7.43705        -1.41876
H          9.33042        -5.32465        -1.41878
H         10.74324        -3.50334        -0.68086
