         424
 CSIRO Nanostructure Databank - Neutral Graphene Oxide Data Set
C          1.27884         3.36623         0.55518
C          0.10205         4.04844         0.80460
C          1.23876         6.20657         0.58047
C          0.07808         5.45416         0.82539
C          1.22032         7.64575         0.54522
C          0.16860         8.39552         1.07538
C          1.28182        10.51139         0.48911
C          0.18071         9.78656         1.04057
C          1.16810        11.98891         0.33855
C          0.18663        12.76551         1.09396
C          1.34292        14.88443         0.61253
C          0.22319        14.12574         1.11511
C          1.36731        16.31899         0.70553
C          0.19495        17.05716         1.02744
C          1.41080        19.17674         0.91241
C          0.20830        18.42857         1.11302
C          1.42193        20.57830         1.04287
C          0.30451        21.32875         1.54824
C          1.20224        23.41785         0.52694
C          0.24917        22.67986         1.42808
C          1.31689        24.90657         0.90884
C          0.01693        25.65397         0.70106
C          1.28730        27.76064         1.00306
C          0.01448        26.99224         0.70947
C          1.20650        29.22677         0.65304
C          0.06706        29.96735         0.89566
C          1.22528        32.08354         0.45532
C          0.02129        31.36326         0.68081
C          1.24119        33.54900         0.32030
C          0.09867        34.34360         0.50176
C          1.18836        36.35435        -0.36477
C          0.09217        35.72446         0.22930
C          1.24113        37.75761        -0.64228
C          3.70737         3.39442         0.13814
C          2.49400         4.07888         0.33047
C          3.69325         6.22731         0.16900
C          2.48087         5.51517         0.33901
C          3.70028         7.73207         0.34222
C          2.37128         8.33808        -0.14630
C          3.54855        10.54749        -0.67562
C          2.38679         9.84090        -0.00317
C          3.65825        12.01368        -0.32834
C          2.42175        12.76251        -0.12080
C          3.72102        14.87995        -0.07447
C          2.48961        14.19762         0.17143
C          3.75515        16.31988         0.03895
C          2.57843        17.03064         0.42627
C          3.82095        19.15722         0.28406
C          2.60885        18.45374         0.54886
C          3.84493        20.58823         0.28936
C          2.71386        21.34239         0.93409
C          3.67931        23.45884         0.03774
C          2.56726        22.76462         0.45047
C          3.70230        24.89764        -0.01586
C          2.38742        25.62420         0.04595
C          3.69834        27.75945         0.22388
C          2.49821        27.07130         0.41411
C          3.70974        29.18871         0.25286
C          2.39739        29.90041         0.02417
C          3.71626        32.10832         0.46348
C          2.42050        31.37564         0.29628
C          3.68036        33.48899        -0.15654
C          2.44109        34.16406        -0.15452
C          3.70091        36.27705        -0.93647
C          2.36167        35.53296        -0.67175
C          3.68894        37.74986        -0.93305
C          2.41746        38.41543        -0.92617
C          6.14446         3.40967        -0.18441
C          4.91732         4.09745        -0.03745
C          6.12583         6.26739        -0.25556
C          4.90033         5.53982        -0.02631
C          6.09592         7.68714        -0.41176
C          4.90565         8.42699        -0.26511
C          6.09444        10.55909        -0.66690
C          4.86725         9.81475        -0.51896
C          6.10221        11.98093        -0.65161
C          4.85954        12.71048        -0.45622
C          6.07579        14.87128        -0.96210
C          4.87194        14.14780        -0.42031
C          6.16031        16.32289        -0.55965
C          4.96964        17.02184        -0.20541
C          6.20955        19.15922        -0.32400
C          4.99958        18.44609        -0.07938
C          6.20427        20.58281        -0.34785
C          4.97905        21.28103        -0.10521
C          6.18770        23.48824        -0.39203
C          4.89140        22.73340        -0.49693
C          6.16747        24.88730        -0.31664
C          4.91058        25.59664        -0.11962
C          6.15719        27.73483        -0.08459
C          4.93473        27.03354        -0.01554
C          6.16571        29.16042         0.02682
C          4.93157        29.88555         0.16702
C          6.15934        31.99362         0.02721
C          4.95089        31.31621         0.12789
C          6.22377        33.45056        -0.37433
C          4.89303        34.17088        -0.38138
C          6.15041        36.30273        -0.53771
C          4.92862        35.56375        -0.60499
C          6.14844        37.71322        -0.82784
C          4.90221        38.41608        -0.94529
C          8.59611         3.41361        -0.35996
C          7.36401         4.11021        -0.30429
C          8.59089         6.25810        -0.48121
C          7.34250         5.54858        -0.37170
C          8.59222         7.65923        -0.64457
C          7.30623         8.36555        -0.99411
C          8.55856        10.54404        -0.78584
C          7.33628         9.85452        -0.74980
C          8.57465        11.98298        -0.77329
C          7.33844        12.70235        -0.72597
C          8.58942        14.83049        -0.82093
C          7.36652        14.12178        -0.76621
C          8.61032        16.27055        -0.85436
C          7.37982        17.00414        -0.69606
C          8.61350        19.16470        -0.80210
C          7.41831        18.44909        -0.60385
C          8.63452        20.58276        -0.69829
C          7.42004        21.30338        -0.52841
C          8.62748        23.44788        -0.67829
C          7.42045        22.75538        -0.53804
C          8.59975        24.92744        -0.98208
C          7.38430        25.64152        -0.45293
C          8.65387        27.77617        -0.38066
C          7.40224        27.02795        -0.31226
C          8.65718        29.16460        -0.16644
C          7.39900        29.86983         0.00093
C          8.64131        32.00808         0.30762
C          7.38249        31.27505         0.07898
C          8.62095        33.51614         0.43962
C          7.28064        34.26401         0.39742
C          8.58928        36.30971        -0.36340
C          7.36798        35.64967        -0.21159
C          8.60425        37.69410        -0.77798
C          7.37541        38.38299        -0.93363
C         11.05076         3.37354        -0.44207
C          9.84399         4.08686        -0.36892
C         11.02851         6.26350        -0.44493
C          9.82637         5.54569        -0.38958
C         11.04138         7.67384        -0.58986
C          9.80896         8.37716        -0.67346
C         11.03481        10.50180        -0.77661
C          9.81187         9.81501        -0.76812
C         11.04166        11.94353        -1.05933
C          9.79324        12.69825        -0.89258
C         11.07821        14.83252        -0.92081
C          9.82661        14.10980        -0.88216
C         11.05745        16.25947        -0.98957
C          9.84744        16.95901        -0.97068
C         11.13734        19.14764        -0.94780
C          9.84424        18.43942        -1.28788
C         11.11420        20.59513        -0.77769
C          9.89236        21.29674        -0.71314
C         11.07739        23.47390        -0.62608
C          9.87569        22.74414        -0.67188
C         11.08017        24.90429        -0.70424
C          9.89911        25.64454        -0.72909
C         11.11004        27.81467        -0.62781
C          9.90221        27.08811        -0.61456
C         11.13211        29.22840        -0.38209
C          9.89453        29.90856        -0.16788
C         11.11692        32.04392         0.06524
C          9.91107        31.31384         0.03239
C         11.10167        33.49786         0.12998
C          9.87562        34.22466         0.13597
C         11.05892        36.29827        -0.40078
C          9.84390        35.60822        -0.18299
C         11.06695        37.67118        -0.84016
C          9.83341        38.34436        -1.01102
C         13.62973         3.40269        -0.67984
C         12.34567         4.03516        -0.32651
C         13.52140         6.27089        -0.81471
C         12.31122         5.55438        -0.28232
C         13.51414         7.72517        -0.45094
C         12.28645         8.40672        -0.54751
C         13.50649        10.54601        -0.39754
C         12.27561         9.82745        -0.60794
C         13.54741        11.97178        -0.47967
C         12.36952        12.70061        -0.95438
C         13.54905        14.87312        -0.63075
C         12.31945        14.15987        -0.83460
C         13.57539        16.27700        -0.76037
C         12.34781        16.97828        -1.31065
C         13.63014        19.16927        -1.10572
C         12.31196        18.45332        -0.98110
C         13.56588        20.60928        -0.68060
C         12.35964        21.29545        -0.64001
C         13.60177        23.49738        -0.58178
C         12.33934        22.75267        -0.22477
C         13.63794        24.88414        -0.65398
C         12.36894        25.60537        -0.88697
C         13.65690        27.80650        -0.62550
C         12.38132        27.11509        -0.90886
C         13.61757        29.30218        -0.86631
C         12.35084        29.96683        -0.36800
C         13.60867        32.10113        -0.06179
C         12.35725        31.35524        -0.13605
C         13.59303        33.52651         0.08712
C         12.32034        34.21465         0.07003
C         13.50428        36.33726        -0.27012
C         12.29529        35.62910        -0.15499
C         13.52512        37.61505        -0.90287
C         12.29727        38.28098        -1.15710
C         16.11489         3.46840        -0.82115
C         14.82104         4.12236        -0.69688
C         15.97493         6.29967        -0.35520
C         14.80550         5.55558        -0.54972
C         15.93429         7.66260         0.01317
C         14.70666         8.41316        -0.11252
C         15.77749        10.59571         0.66175
C         14.67169         9.82910        -0.02008
C         15.91008        12.02781         0.21850
C         14.72733        12.71383        -0.17215
C         15.95475        14.84794        -0.03207
C         14.74443        14.14307        -0.29409
C         15.96090        16.28035        -0.10111
C         14.77324        16.99647        -0.46796
C         15.96849        19.13178        -0.16855
C         14.80426        18.42211        -0.51319
C         15.99526        20.58594        -0.21492
C         14.81197        21.28163        -0.47904
C         16.15528        23.51411        -0.33954
C         14.82620        22.73769        -0.66121
C         16.03631        24.94941        -0.08783
C         14.84724        25.62978        -0.43961
C         16.03096        27.75760         0.06258
C         14.82477        27.08568        -0.39195
C         16.10676        29.23483        -0.03004
C         14.89851        30.01581        -0.45055
C         16.06139        32.13521         0.22451
C         14.84729        31.44704        -0.08407
C         16.06135        33.57568         0.30041
C         14.80082        34.24121         0.17644
C         16.01048        36.36234        -0.14892
C         14.74041        35.75038         0.34553
C         15.98908        37.42379        -1.07512
C         14.76717        38.11008        -1.35657
C         18.58912         3.56324        -0.97246
C         17.28752         4.17633        -0.80495
C         18.51114         6.31813        -0.26242
C         17.26824         5.68605        -0.80877
C         18.48638         7.58820         0.55347
C         17.14426         8.32998         0.53864
C         18.37195        10.58231         0.66145
C         17.10042         9.82056         0.74121
C         18.33612        11.96765         0.70299
C         17.11410        12.71489         0.45231
C         18.37435        14.86435         0.53557
C         17.14681        14.13867         0.31224
C         18.37348        16.29122         0.47781
C         17.16074        16.99603         0.18143
C         18.33878        19.14050         0.53829
C         17.15364        18.41848         0.18264
C         18.29613        20.56601         0.65770
C         17.18902        21.29754         0.20892
C         18.29728        23.44140         0.87496
C         17.22331        22.73680         0.26673
C         18.28042        24.88032         0.94547
C         17.13784        25.61948         0.50864
C         18.12998        27.75754         1.43714
C         17.09047        27.05289         0.60113
C         18.27393        29.23528         1.14831
C         17.22006        29.96074         0.62054
C         18.38650        32.10903         1.03608
C         17.24250        31.40495         0.56542
C         18.42452        33.55742         0.99106
C         17.27913        34.28724         0.54453
C         18.51025        36.41052        -0.21729
C         17.28092        35.83507         0.46647
C         18.43723        37.31885        -1.31902
C         17.18758        37.84014        -1.71998
C         19.73565         4.29953        -0.89907
C         20.94102         6.43152        -0.23432
C         19.71551         5.69061        -0.46823
C         20.91721         7.77212         0.03543
C         19.68371         8.48247         0.28137
C         20.79849        10.69265         0.17138
C         19.62395         9.86625         0.43773
C         20.79549        12.02429         0.37418
C         19.61728        12.69130         1.04240
C         20.75164        14.91217         1.07705
C         19.57649        14.18377         0.83806
C         20.76388        16.29779         1.01330
C         19.58124        17.01769         0.72121
C         20.77621        19.23611         0.85962
C         19.56075        18.45286         0.73610
C         20.73480        20.56515         1.10684
C         19.41374        21.21727         1.43426
C         20.50820        23.42082         1.89774
C         19.42695        22.72375         1.37292
C         20.52079        24.82137         1.92676
C         19.42852        25.56888         1.46569
C         20.58759        27.73460         1.81006
C         19.44279        27.01744         1.52081
C         20.59306        29.14606         1.89492
C         19.46616        29.90807         1.57519
C         20.58786        32.03102         2.12502
C         19.49509        31.36101         1.56383
C         20.64176        33.42392         2.10555
C         19.62154        34.15958         1.51575
C         20.95377        36.73029        -0.18318
C         19.76706        36.20957         0.35105
C         20.87840        37.50324        -1.35143
C         19.64248        37.80713        -1.90201
O         15.95723        29.72157        -1.43029
O         16.98409         8.91459         1.90654
O         12.47339         4.84711         0.95464
O          2.91193        35.69116        -2.01548
O         15.76887        23.14025        -1.69332
O          1.32848        12.39924        -1.06050
O         12.38214        26.34378        -2.16724
O          8.69277        32.68043         1.64418
O         11.82505        12.24834        -2.25871
O         19.84368        35.53675         1.58576
O          5.86233        14.89597        -2.43522
H          6.68935        15.23303        -2.84123
O          2.24614         8.03312        -1.56586
H          2.66314         8.77898        -2.07052
O         15.28678        10.74203         2.04059
H         15.53317         9.90742         2.50658
O         19.14365        20.89589         2.85204
H         19.12619        19.91736         2.92575
O          4.62204        22.68814        -1.95695
H          5.45271        22.41027        -2.39985
O          1.48844        27.70801         2.47409
H          0.75349        28.20968         2.88767
O         19.81046        12.51003         2.48989
H         19.78651        11.54557         2.66833
O          2.18979        29.77154        -1.45838
H          1.35252        30.24171        -1.66434
O         14.60530        35.99759         1.79166
H         15.51870        36.11749         2.15400
O          7.18094         8.22078        -2.46430
H          7.93567         8.69890        -2.86979
O         13.35833         6.22524        -2.28416
H         14.17186         6.60399        -2.68162
O          8.43502        24.99097        -2.46360
H          9.30267        24.76076        -2.86156
O         13.52906        29.43680        -2.31829
H         14.43843        29.28045        -2.66381
O          1.86728        25.60765        -1.34300
H          2.54993        26.01556        -1.91855
O         17.29492         6.05270        -2.25735
H         18.06468         5.58607        -2.65033
O          1.70598        24.94845         2.28817
H          1.70979        25.89450         2.58133
O          3.14998        21.49033         2.34696
H          3.21976        20.58890         2.72782
O         17.57434        27.70230         2.81087
H         18.27016        28.03759         3.41597
O         18.69278         7.08928         1.91689
H         18.28962         7.75902         2.51899
O          3.84082        32.34458         1.92122
H          3.05500        32.86229         2.19953
O         17.28441        36.31873         1.85941
H         18.18452        36.13815         2.22349
O         12.31898        22.74253         1.25727
H         11.50344        22.27119         1.53233
O          6.70400        33.43556        -1.75390
H          5.99742        33.06112        -2.32112
O          3.76572         7.99456         1.77677
H          4.57984         7.57179         2.12232
O         13.90954        19.21713        -2.55272
H         13.64468        18.33461        -2.92007
O          9.80092        18.49175        -2.77016
H          8.90378        18.20595        -3.04663
O          3.22861        10.52214        -2.13197
H          2.46554        11.13971        -2.24588
O          0.61289        23.31101        -0.79888
H          1.05436        23.98684        -1.37178
O         12.45578        16.92842        -2.78957
H         11.63182        17.34988        -3.13400
O          6.82820        34.45257         1.75083
H          7.21853        33.72129         2.28568
H          1.29292         2.26694         0.53751
H         -0.82948         3.49213         0.97984
H         -0.88115         5.96258         0.99492
H         -0.68644         7.88981         1.54678
H         -0.68772        10.33096         1.43299
H         -0.58813        12.24274         1.67139
H         -0.56995        14.65708         1.65866
H         -0.75447        16.52962         1.18832
H         -0.72645        18.95773         1.34021
H         -0.50860        20.80129         2.07055
H         -0.59714        23.23545         1.85875
H         -0.90698        25.09005         0.49973
H         -0.91997        27.54773         0.53673
H         -0.84081        29.47219         1.27459
H         -0.93162        31.89185         0.80976
H         -0.82027        33.89050         0.89833
H         -0.80774        36.31227         0.46207
H          0.31103        38.33829        -0.54988
H          3.71752         2.29435         0.14700
H          2.40388        39.50700        -1.06269
H          6.15065         2.30978        -0.16755
H          4.92223        39.51402        -1.01986
H          8.58322         2.31332        -0.34412
H          7.38955        39.45694        -1.17184
H         11.02028         2.28629        -0.61103
H          9.83350        39.39223        -1.34599
H         13.64876         2.31461        -0.84551
H         12.30920        39.28801        -1.59852
H         16.13940         2.37149        -0.91939
H         14.80018        39.02364        -1.96720
H         18.63841         2.48075        -1.16431
H         17.14421        38.62120        -2.49145
H         20.71213         3.81540        -1.04741
H         21.90240         5.91785        -0.38123
H         21.87192         8.31469         0.08186
H         21.69110        10.21745        -0.25832
H         21.69014        12.61859         0.13728
H         21.67240        14.37884         1.35086
H         21.69748        16.83359         1.22944
H         21.74641        18.74319         0.70304
H         21.66648        21.14524         1.17268
H         21.36745        22.87431         2.31024
H         21.39642        25.32649         2.35550
H         21.54563        27.21613         1.95467
H         21.54404        29.63410         2.14344
H         21.41401        31.47659         2.58636
H         21.49861        33.95649         2.53693
H         21.91332        36.53499         0.31127
H         21.79706        37.90312        -1.80232
H         19.57467        38.47302        -2.77362
