         264
 CSIRO Nanostructure Databank - Neutral Graphene Oxide Data Set
C        -11.21431         0.60370         0.26835
C        -10.05960         1.43054        -0.18768
C         -8.78699         0.71638        -0.49672
C         -7.40761         1.32676        -0.37296
C         -6.46169         0.67298        -1.41937
C         -5.20191         1.46589        -1.70739
C         -3.87139         0.74694        -1.57523
C         -2.63900         1.54801        -1.18223
C         -1.27862         0.81299        -1.17422
C         -0.09739         1.68383        -0.72165
C          1.21727         0.97988        -0.39763
C          2.51477         1.68125        -0.64125
C          3.78854         0.87206        -0.52114
C          5.10367         1.54795        -0.71970
C          6.35742         0.74003        -0.92064
C          7.67134         1.46052        -0.96728
C          8.93304         0.67986        -0.68699
C         10.05120         1.32086         0.09350
C         11.02148         0.43516         0.78164
C         -9.97957         2.87004         0.05972
C         -8.79652         3.56638        -0.13467
C         -7.42539         2.89788        -0.23683
C         -6.46821         3.67716        -1.11453
C         -5.22264         2.99580        -1.58907
C         -3.91907         3.77339        -1.64763
C         -2.64945         3.03216        -1.32337
C         -1.35544         3.77117        -1.55565
C         -0.06214         3.12100        -1.13434
C          1.24855         3.78700        -1.54563
C          2.53059         3.02422        -1.34413
C          3.86686         3.73450        -1.41185
C          5.14286         2.97246        -1.20947
C          6.41780         3.72588        -0.90224
C          7.69776         2.95777        -0.74553
C          8.74535         3.53972         0.14032
C          9.88124         2.70419         0.69649
C         -8.80095         4.97757        -0.02851
C         -7.61959         5.76020        -0.13052
C         -6.33304         5.01056        -0.40507
C         -5.19666         5.89641        -0.87564
C         -3.90128         5.23934        -1.29134
C         -2.61900         5.93563        -0.97582
C         -1.36157         5.26293        -1.39611
C         -0.03177         5.98848        -1.23863
C          1.28291         5.31212        -1.56874
C          2.63936         6.10751        -1.41480
C          3.92588         5.25190        -1.32902
C          5.17560         5.90835        -0.81016
C          6.20362         5.00267        -0.07753
C          7.51591         5.69913         0.25167
C          8.66381         4.84361         0.52024
C         -7.61449         7.08626         0.25048
C         -6.46317         8.03896         0.05261
C         -5.17970         7.31922        -0.39988
C         -3.85981         7.73577         0.18809
C         -2.59912         7.13982        -0.33428
C         -1.33096         7.64943         0.27187
C         -0.02524         7.07627        -0.20113
C          1.28600         7.71083         0.18929
C          2.58620         7.15249        -0.28679
C          3.82018         8.01913        -0.18615
C          5.15985         7.36336        -0.37532
C          6.37243         7.91002         0.33325
C          7.54667         7.02516         0.54020
C         -6.26731         9.07227         1.14044
C         -5.07294         9.57049         1.49376
C         -3.80241         8.88278         1.14702
C         -2.48794         9.51575         1.40893
C         -1.32897         8.92865         1.03353
C         -0.00471         9.38153         1.61762
C          1.21021         9.16854         0.69093
C          2.48510         9.49152         1.41099
C          3.74840         9.25346         0.77560
C          5.00144         9.66051         1.44938
C          6.18591         9.05073         1.25749
C        -11.03869        -0.63645         0.75594
C         -9.63017        -1.18047         0.92460
C         -8.81218        -0.77877        -0.28926
C         -7.71719        -1.63471        -0.83063
C         -6.50832        -0.94261        -1.53853
C         -5.14147        -1.55700        -1.12527
C         -3.88566        -0.68677        -1.13341
C         -2.70287        -1.17348        -0.33892
C         -1.40524        -0.43278        -0.29877
C         -0.13265        -1.17923         0.07614
C          1.20102        -0.49890        -0.07726
C          2.43190        -1.33349        -0.24013
C          3.71499        -0.63264        -0.57677
C          5.01545        -1.37543        -0.48683
C          6.35344        -0.65128        -0.29162
C          7.52057        -1.50189        -0.79812
C          8.86838        -0.82204        -0.80578
C         10.04125        -1.66675        -0.13818
C         11.03520        -0.90358         0.64576
C         -9.49310        -2.62379         1.30782
C         -8.51147        -3.46895         0.83744
C         -7.74719        -3.16020        -0.45373
C         -6.35809        -3.86132        -0.52344
C         -5.11713        -2.94017        -0.51428
C         -3.86829        -3.41119         0.18681
C         -2.63134        -2.63020         0.03055
C         -1.38058        -3.28765        -0.56281
C         -0.15118        -2.69361         0.08828
C          1.13318        -3.45386         0.07279
C          2.40450        -2.69770        -0.07532
C          3.65604        -3.47170         0.19282
C          4.97544        -2.75740         0.09189
C          6.26177        -3.53821         0.13685
C          7.44592        -2.99151        -0.60541
C          8.76723        -3.82757        -0.58722
C          9.75082        -3.02674         0.22923
C         -8.40074        -4.77821         1.40849
C         -7.35932        -5.68351         1.11800
C         -6.26289        -5.22268         0.18089
C         -4.95443        -5.51914         0.89578
C         -3.70797        -4.89098         0.32629
C         -2.52591        -5.61853        -0.20895
C         -1.37028        -4.82623        -0.77377
C         -0.07202        -5.59044        -0.90143
C          1.13531        -4.93696        -0.25834
C          2.40969        -5.70221        -0.08726
C          3.68799        -4.96050         0.17499
C          4.85599        -5.65225         0.35944
C          6.18781        -5.00132         0.46693
C          7.42887        -5.81639         0.30521
C          8.58665        -5.24080        -0.07333
C         -7.21471        -6.92610         1.74503
C         -5.98104        -7.73896         1.61963
C         -4.78611        -7.02459         1.07656
C         -3.81435        -7.79179         0.21491
C         -2.72433        -7.06620        -0.61211
C         -1.39049        -7.86048        -0.72848
C         -0.08406        -7.12625        -0.99462
C          1.28736        -7.88947        -1.11848
C          2.53047        -7.05311        -0.72908
C          3.79527        -7.80123        -0.48521
C          4.84280        -7.14650         0.36706
C          6.07284        -7.93176         0.68520
C          7.41777        -7.22844         0.87443
C         -5.92457        -9.22564         1.67106
C         -4.78705        -9.88305         1.35372
C         -3.72050        -9.25843         0.51440
C         -2.39991        -9.90103         0.31420
C         -1.33144        -9.26420        -0.22571
C         -0.04855       -10.02675        -0.47700
C          1.26128        -9.24390        -0.37643
C          2.43217        -9.86409        -0.10935
C          3.75350        -9.32473        -0.66042
C          4.98961       -10.01365        -0.13388
C          6.07227        -9.38035         0.33976
O         -4.79608        -2.71535        -1.93057
O          4.29769        -2.84494         1.36912
O         -8.98405        -1.43083        -1.55190
O          1.88994         1.72708         0.66668
O         -4.80449        -7.30787         2.49644
O         -0.76014        -5.07130        -2.07299
O          2.06814         6.77086         1.01063
O         -6.79226         3.21729         1.08262
O          4.63045         3.19128        -2.54228
O         -1.38869         4.60299        -2.71460
O         -2.59019        -5.30313         1.20621
O          1.44118        -8.31088        -2.43734
O          7.01789         0.96698        -2.18093
O          0.35554        -3.24542         1.31101
O         -9.61202         1.14296        -1.59814
O         -0.66144         6.56054         1.02276
O          6.48228        -3.98964         1.50221
O          7.40868         3.76606        -1.94167
O         -3.91775         4.75945        -2.68887
O         -8.57291        -3.81426        -1.42766
O         -6.17457         1.14776        -2.74623
O         -5.37249         7.00913        -1.81272
O         -2.81883         2.39091        -0.01649
O          0.55149        -0.66574         1.23437
O          4.57776         1.36382         0.62894
O         -4.42327        -8.75879        -0.70187
O          0.54335         6.09660        -2.55825
O         -5.94884         4.45332         0.92333
O          7.16335        -2.39163        -1.89533
O          4.37585        -1.19778        -1.77312
O         -0.28655         2.73651         0.25784
O          3.59256        -7.06424        -1.72897
O         -3.23173        -2.79016         1.34938
O          3.70706         9.34122        -0.71524
O         -6.31973        -5.90353        -1.11960
O         -0.89884        -7.63796        -2.07475
O          4.98332         5.74114        -2.22103
O         10.09393         1.26461        -1.35513
O         -3.88262         7.48576         1.64816
O          9.90602        -1.38902        -1.59275
O         -2.36102        -0.30353         0.78356
O          6.09803         8.20733        -1.08712
O          1.86686         3.06461        -2.64809
O          5.05401        -7.67086         1.72039
O          5.58775         4.63063         1.11632
O         -3.56989        -0.30236        -2.52989
O         -6.25655         3.54927        -2.50300
O          1.42753        -5.69134         0.98531
O          8.46823        -8.00561         0.30505
H          8.33726        -8.05643        -0.66409
O         -6.28818        -4.60315        -1.81522
H         -8.24476        -3.57618        -2.32138
O         -0.93573         0.40344        -2.50696
H         -1.68772        -0.12560        -2.87327
O         -6.70226        -1.25872        -2.90829
H         -6.12808        -0.67376        -3.45163
O         -6.82849         0.78212         0.83458
H         -7.49458         0.79306         1.56126
O         -6.91044         8.85851        -1.07417
H         -6.74727         8.32993        -1.89111
O         -3.26036        -6.92511        -1.93794
H         -3.60087        -7.80412        -2.21975
O          3.73513        -9.63701        -2.06468
H          2.97239        -9.11865        -2.46222
O         -1.37556        -2.68875        -1.89371
H         -1.14704        -3.39787        -2.54564
O         -9.02602        -0.41334         2.03228
H         -9.45330        -0.69750         2.86858
O          9.24044        -3.96777        -1.93522
H          9.34717        -3.06537        -2.32093
O          1.03923        10.00407        -0.47096
H          1.89389        10.00968        -0.96712
O          2.78396         6.93514        -2.57230
H          3.00254         6.37410        -3.34606
O         -5.12157        -4.88048         2.17645
H         -4.30185        -5.04138         2.69494
O          6.58010        -0.47056         1.11950
H          5.84154         0.07742         1.48271
O         -0.03036       -11.19034         0.33233
H          0.63617       -11.81117        -0.02330
O          9.65751         2.49479         2.10001
H          9.34175         3.33166         2.49983
O          0.21273         8.63310         2.81811
H          0.05912         7.68064         2.61199
H         11.76304        -1.49683         1.21942
H         11.74860         0.91684         1.45128
H         10.84880         3.27318         0.56145
H          9.48771         5.27694         1.11267
H          8.47428         7.49273         0.90793
H          7.06086         9.37708         1.83963
H          4.91996        10.47086         2.18906
H          2.45464         9.70619         2.48972
H         -0.06284        10.46304         1.89530
H         -2.46729        10.43959         2.00763
H         -5.01395        10.41896         2.19263
H         -7.18576         9.56697         1.49072
H         -8.57479         7.54448         0.53655
H         -9.75726         5.48733         0.16269
H        -10.89950         3.42890         0.28989
H        -12.22404         1.03212         0.17384
H        -11.89965        -1.24561         1.06968
H        -10.10672        -2.96257         2.16016
H         -9.12025        -5.04824         2.19826
H         -8.04145        -7.31025         2.36427
H         -6.75799        -9.75810         2.15376
H         -4.71110       -10.96619         1.53444
H         -2.27145       -10.93703         0.66329
H         -0.08935       -10.33391        -1.56789
H          2.43141       -10.88035         0.31764
H          5.03804       -11.09911        -0.31105
H          6.97779        -9.94979         0.59945
H          7.62898        -7.15376         1.97329
H          9.49453        -5.86453        -0.09390
H         10.13401        -3.41098         1.18625
