         272
 CSIRO Nanostructure Databank - Neutral Graphene Oxide Data Set
C        -10.88023         0.69241         0.41172
C         -9.81769         1.68154         0.73759
C         -8.48698         1.08748         1.09767
C         -7.21982         1.80097         0.73992
C         -6.20887         0.92094         0.01617
C         -5.07157         1.68654        -0.68696
C         -3.88220         0.88765        -1.16129
C         -2.65342         1.61244        -1.70525
C         -1.34581         0.83747        -1.87614
C         -0.02428         1.59340        -2.00415
C          1.29066         0.85479        -2.14890
C          2.67780         1.55435        -2.01201
C          3.72383         0.68328        -1.30248
C          4.98045         1.37399        -0.79505
C          6.00859         0.49837        -0.14938
C          6.76289         0.99559         1.05686
C          7.93325         0.17610         1.50380
C          9.11159         0.78502         2.26571
C         10.42370         0.41183         1.59321
C         -9.87240         3.08999         0.14942
C         -8.60639         3.94428         0.34109
C         -7.28970         3.25664         0.46685
C         -6.06227         3.95641        -0.04344
C         -5.03607         3.17546        -0.81035
C         -3.77954         3.84505        -1.27826
C         -2.66789         3.12068        -1.62727
C         -1.33409         3.81155        -1.57295
C         -0.05393         3.03407        -1.58834
C          1.28461         3.73103        -1.44816
C          2.58084         2.96638        -1.37679
C          3.85141         3.71851        -0.96089
C          4.98448         2.86189        -0.45937
C          5.98998         3.43935         0.49612
C          6.59271         2.46346         1.55724
C          7.87569         3.03892         2.15059
C          8.98225         2.28146         2.45463
C         -8.66258         5.27986         0.11220
C         -7.48797         6.08473        -0.42212
C         -6.13926         5.41731        -0.21249
C         -4.99033         6.11707        -0.87311
C         -3.83503         5.33774        -1.40285
C         -2.57605         6.05751        -1.80203
C         -1.29364         5.29123        -1.85705
C          0.03835         6.05386        -1.90457
C          1.27562         5.23982        -1.41459
C          2.35764         5.83363        -0.55623
C          3.62501         5.03907        -0.26851
C          4.37505         5.33810         1.00119
C          5.85675         4.92499         0.98698
C          6.53427         5.11679         2.39558
C          7.72672         4.37476         2.61443
C         -7.40748         7.58318        -0.20126
C         -6.22717         8.25672        -0.32188
C         -4.93602         7.50326        -0.24435
C         -3.68063         8.43631        -1.99815
C         -2.53168         7.55486        -1.75646
C         -1.23246         8.38203        -1.53892
C          0.01529         7.50411        -1.31499
C          1.00727         7.94353        -0.28088
C          1.81344         6.85619         0.43551
C          2.82383         7.37815         1.45313
C          3.95914         6.47449         1.86493
C          4.87936         7.00761         2.97072
C          6.11056         6.15214         3.17983
C         -6.15113         9.70900        -0.46653
C         -5.10379        10.39098        -0.97655
C         -3.75681         9.89756        -1.45498
C         -2.70198        10.01443        -0.36044
C         -1.49291         9.39802        -0.41933
C         -0.40220         9.83863         0.44173
C          0.79640         9.20998         0.47692
C          2.05077         9.84651         1.02931
C          2.94901         8.84240         1.74389
C          4.27241         9.31170         2.23779
C          5.18639         8.47491         2.75313
C        -10.74645        -0.64313         0.58924
C         -9.55978        -1.27117         1.22185
C         -8.36013        -0.37360         1.40976
C         -6.98518        -0.99022         1.52222
C         -5.80370        -0.28857         0.85903
C         -4.65197        -1.09492         0.33267
C         -3.76899        -0.54796        -0.76334
C         -2.54077        -1.33909        -1.20353
C         -1.19937        -0.60375        -1.33041
C         -0.06309        -1.41852        -2.01843
C          1.23559        -0.68440        -2.24606
C          2.54292        -1.48241        -2.23295
C          3.71989        -0.80750        -1.55468
C          5.00099        -1.60766        -1.39920
C          6.05335        -0.99096        -0.51138
C          7.01336        -1.88524         0.21955
C          8.13562        -1.22429         0.98137
C          9.56679        -1.76479         0.77577
C         10.62780        -0.74099         0.93284
C         -9.31813        -2.73605         1.24088
C         -8.14244        -3.29419         1.63684
C         -6.90486        -2.47022         1.79562
C         -5.51623        -3.13681         1.68649
C         -4.69145        -2.58793         0.49133
C         -3.57670        -3.42647        -0.07412
C         -2.52726        -2.82503        -0.99690
C         -1.31977        -3.64741        -1.45049
C         -0.07842        -2.95717        -1.96657
C          1.21317        -3.77010        -2.14873
C          2.52238        -3.00096        -2.22223
C          3.79737        -3.84053        -2.09956
C          5.07336        -3.09387        -1.78070
C          6.32180        -3.84443        -1.38129
C          7.21150        -3.27877        -0.28862
C          8.58518        -3.97816         0.02900
C          9.67762        -2.94100        -0.05531
C         -8.11241        -4.79965         1.89478
C         -6.74004        -5.39235         2.17798
C         -5.59444        -4.69319         1.46727
C         -4.19017        -5.27586         1.72549
C         -3.25310        -4.73349         0.61314
C         -2.28410        -5.63591        -0.11034
C         -1.32788        -5.12984        -1.15976
C         -0.06832        -5.93641        -1.34537
C          1.20834        -5.26766        -1.84668
C          2.49897        -5.99201        -1.39367
C          3.77456        -5.35104        -1.95649
C          5.08840        -6.10144        -1.75395
C          6.36177        -5.34598        -1.49905
C          7.56006        -6.02469        -0.93696
C          8.79989        -5.16233        -0.92424
C         -6.60899        -6.65457         2.64037
C         -5.26558        -7.33226         2.85246
C         -4.19542        -6.79071         1.90476
C         -3.37027        -7.68931         1.02749
C         -2.55664        -7.10549        -0.07791
C         -0.81017        -7.75746         0.48565
C          0.00373        -7.33769        -0.75027
C          1.21685        -8.19497        -0.92117
C          2.47340        -7.53938        -1.45107
C          3.76820        -8.25486        -1.19706
C          5.09148        -7.56271        -1.38690
C          6.34078        -8.17618        -0.81345
C          7.53984        -7.33089        -0.59911
C         -5.29618        -8.84503         2.83262
C         -4.49095        -9.64254         2.11735
C         -3.59096        -9.19566         0.98275
C         -2.22243        -9.86831         0.94385
C         -1.05487        -9.25831         0.61112
C          0.18996       -10.00824         0.45058
C          1.28097        -9.49090        -0.17009
C          2.54921       -10.30223        -0.31687
C          3.72948        -9.33767        -0.11948
C          5.03799       -10.03897         0.14645
C          6.22569        -9.46348        -0.08093
O          6.02124        -5.82197        -2.83186
O          0.60513         1.44029        -3.30397
O         -2.07511         5.53251        -3.06455
O          3.08092        -8.36244        -2.48582
O          6.51561         5.79312         0.19447
O         -2.22477         1.06344        -2.99119
O          4.37715         4.93009        -1.51917
O          3.78194        -4.73616        -3.25473
O         -6.85495         2.70994         1.79214
O          1.25946         8.19448        -1.69311
O         -1.89260        -4.90068         1.09661
O         -1.15388        -5.93248        -2.34928
O         -4.54319        -0.30769         1.56989
O         -5.64842         4.87485         1.03975
O         -1.21858         9.03705        -2.78173
O          5.98337        -8.34269        -2.23685
O         -4.93277         5.87591        -2.29810
O          2.37100         6.01620        -1.99047
O         -9.31442         1.74729         2.09904
O          2.17523         7.96796         2.63156
O         -4.45017        -0.16453        -2.00513
O         -6.83797        -1.48418         2.88413
O         -2.98278         8.21828        -3.11349
O          6.65949         0.12519         2.22442
O          6.31929         3.37633        -0.86634
O          2.72188        -2.20477        -3.45454
O         -3.04070        -2.22677        -2.22432
O         -5.66537         2.37474        -1.85107
O          1.76251         3.07359        -0.18442
O          6.26832         1.16064        -1.42411
O          0.34021        -1.02550        -3.33858
O          6.41176        -3.02633         0.91330
O         -0.75659         3.32032        -0.31777
O          3.21145        -0.23403        -0.29141
O         -4.88245        -3.32683        -0.72885
O         -5.94341        -4.98031         0.14252
O         -0.53435        -7.11086         1.54478
O         -2.88136        -7.25261         2.32640
O         -1.09508        -3.44026        -2.86997
O          6.19859        -1.03002        -1.95982
O          8.75588        -2.02197         2.00132
O          3.56366         5.08720         2.18092
O          1.12177        -4.78790        -3.19091
O          5.67184         2.50219         2.58615
O         -9.20630        -0.71230         2.53437
O         -4.03746         7.81945         0.52984
O          6.20473        -3.25372        -2.69222
O          0.07235        -8.27697        -1.85555
O        -10.07006         2.95756        -1.26132
H        -10.01552         3.84191        -1.67934
O         -3.63350        -4.83685         2.97975
H         -2.72794        -5.22505         3.02264
O          8.50639        -4.55608         1.33695
H          8.35067        -3.82057         1.97951
O          4.14527         6.90146         4.21290
H          3.69210         6.02980         4.20392
O         -9.01629        -5.10271         2.96182
H         -8.78108        -4.55365         3.73784
O          0.26656         6.22702        -3.31111
H          1.02621         6.84407        -3.40884
O          3.19119         1.72534        -3.33868
H          2.43839         1.87851        -3.95399
O          0.82298         6.10694         1.19611
H          0.86435         6.41222         2.13037
O          9.12114         0.22707         3.59910
H          8.18449         0.17609         3.89289
O         -4.85813        -6.97491         4.19982
H         -4.48258        -6.06090         4.15668
O          2.61506       -10.94395        -1.58540
H          2.60244       -10.25059        -2.28636
O         -4.29578        -9.58932        -0.21502
H         -3.74983        -9.35599        -0.99753
O         -7.73724         5.98132        -1.86908
H         -6.89034         6.09744        -2.35939
O         -7.00248         0.31315        -1.04094
H         -6.39891         0.10792        -1.79782
O          3.43371        -8.53070         1.07628
H          3.50000        -9.10408         1.87016
O          2.55106        -5.72399         0.04389
H          2.81169        -6.53393         0.54419
O          9.03321        -4.64335        -2.23369
H          8.57346        -5.19618        -2.89951
O          2.76773        10.42562        -0.07331
H          2.51164         9.96554        -0.90184
O         -2.78687        -7.65995        -1.29631
H         -2.26135        -7.18726        -2.00646
O         -4.78837        -2.81641         2.85486
H         -5.25312        -2.06904         3.30889
O         -0.70834        -0.46970         0.03202
H         -1.24395         0.17769         0.53794
O         -3.34629        10.74163        -2.51843
H         -2.46875        10.39095        -2.83749
H         11.60557        -0.95002         0.47380
H         11.25639         1.12443         1.69160
H          9.75601         2.73265         3.09836
H          8.61039         4.89411         3.02412
H          6.54496         6.23980         4.19078
H          6.16052         8.86002         3.08804
H          4.50427        10.37905         2.10819
H          1.79078        10.67114         1.74323
H         -0.54579        10.77467         1.00461
H         -2.88585        10.76973         0.41982
H         -5.21832        11.48175        -1.07550
H         -7.06512        10.27109        -0.21663
H         -8.35288         8.14981        -0.20054
H         -9.65061         5.74693        -0.03976
H        -10.75072         3.63749         0.60109
H        -11.78055         1.07442        -0.09268
H        -11.55223        -1.31177         0.24933
H        -10.18360        -3.39758         1.07549
H         -8.51570        -5.31657         0.98344
H         -7.50084        -7.16315         3.04074
H         -5.96057        -9.30459         3.58143
H         -4.57158       -10.73317         2.24898
H         -2.21940       -10.96538         1.06047
H          0.23504       -11.03145         0.85715
H          2.57940       -11.09999         0.46891
H          4.98365       -11.02070         0.64195
H          7.15778        -9.97791         0.19824
H          8.44574        -7.81277        -0.19994
H          9.68504        -5.76200        -0.57498
H         10.45060        -3.00591        -0.83423
