         404
 CSIRO Nanostructure Databank - Neutral Graphene Oxide Data Set
C          1.73547         3.48243        -1.70183
C          0.70162         4.14143        -2.34515
C          1.76924         6.31668        -1.96421
C          0.69923         5.54306        -2.43715
C          1.59927         7.79453        -1.95203
C          0.33605         8.39712        -1.72019
C          1.32155        10.63850        -1.56296
C          0.19756         9.77401        -1.57142
C          1.25001        12.05610        -1.24799
C          0.09437        12.83051        -1.36458
C          1.31778        14.97967        -1.23063
C          0.12890        14.23845        -1.36012
C          1.41873        16.38469        -1.48133
C          0.30515        17.12675        -1.99580
C          1.57014        19.23170        -1.93357
C          0.36420        18.46765        -2.24827
C          1.53385        20.78024        -1.77754
C          0.31170        21.57454        -1.96966
C          1.37734        23.65434        -1.16807
C          0.27488        22.91875        -1.72755
C          1.39023        25.06070        -1.00361
C          0.23002        25.85823        -1.26666
C          1.40991        27.94539        -0.76100
C          0.23384        27.22538        -1.13515
C          1.40227        29.36816        -0.53724
C          0.26708        30.18373        -0.83412
C          1.30552        32.21502         0.05669
C          0.24813        31.55182        -0.60615
C          1.31844        33.61994         0.35339
C          0.15130        34.41353         0.15471
C          1.33577        36.50329         0.58721
C          0.17183        35.80572         0.24336
C          1.40255        37.92404         0.55953
C          3.86975         3.52981        -0.47129
C          2.82887         4.21513        -1.16877
C          4.05336         6.30359        -0.84272
C          2.88875         5.63359        -1.37886
C          4.46914         7.58091        -1.25971
C          2.68155         8.67648        -2.09084
C          3.79814        10.85860        -1.63365
C          2.59703        10.06625        -1.83806
C          3.78374        12.07352        -1.01468
C          2.48353        12.73167        -0.81810
C          3.88206        14.91557        -1.04855
C          2.52502        14.26636        -0.79108
C          3.84014        16.39496        -0.75312
C          2.62896        17.10355        -1.13920
C          3.73382        19.25541        -0.62603
C          2.65104        18.50034        -1.25203
C          3.77829        20.73117        -0.72233
C          2.64621        21.42660        -1.04159
C          3.77469        23.59384        -0.22246
C          2.50979        22.86023        -0.67742
C          3.78788        25.04482        -0.39063
C          2.61753        25.76105        -0.65654
C          3.80874        27.92409        -0.26097
C          2.61975        27.21699        -0.58176
C          3.77954        29.29366         0.12971
C          2.55208        29.99208         0.02026
C          3.72581        32.11832         0.89418
C          2.43923        31.38816         0.48054
C          3.74978        33.58672         0.85770
C          2.53747        34.27725         0.74040
C          3.82253        36.44231         0.95216
C          2.50694        35.73395         1.14224
C          3.83865        37.85961         0.86117
C          2.59407        38.58562         0.74106
C          6.06209         3.49621         0.64840
C          4.89585         4.20263         0.21684
C          5.66169         6.45736         0.97267
C          4.85232         5.65596         0.16089
C          5.98466         7.79345         0.64694
C          5.43565         8.33088        -0.56195
C          6.37710        10.51688         0.03625
C          5.64267         9.72191        -0.81928
C          6.11777        11.96233         0.24275
C          4.93591        12.71939        -0.30523
C          6.19384        14.87530         0.02727
C          5.03100        14.19546        -0.38658
C          6.21922        16.34080        -0.00976
C          4.99492        17.04646        -0.34953
C          6.21296        19.24747         0.11893
C          4.95236        18.50277        -0.11031
C          6.22354        20.63911         0.08925
C          5.11551        21.41537        -0.58661
C          6.24027        23.52403         0.09110
C          5.05517        22.86049        -0.18580
C          6.29181        24.96901         0.07457
C          5.09689        25.70596        -0.40385
C          6.33925        27.93330         0.03209
C          5.09545        27.23109        -0.39656
C          6.23634        29.29863         0.57761
C          5.00308        29.97567         0.55441
C          6.16658        32.09761         1.09737
C          4.99270        31.38579         0.83399
C          6.20609        33.53015         1.14007
C          5.00991        34.26088         0.97955
C          6.26810        36.39527         0.88447
C          5.03678        35.71769         0.94666
C          6.29057        37.81781         0.84805
C          5.06828        38.53360         0.82499
C          8.52259         3.35622         0.79032
C          7.31045         4.04597         1.06231
C          8.59702         6.08641         1.72332
C          7.41306         5.35523         1.67073
C          8.68999         7.49763         1.97409
C          6.93582         8.57143         1.35969
C          8.52927        10.49531         1.31758
C          7.28067         9.86952         0.96996
C          8.51816        11.98238         1.29096
C          7.27762        12.73255         0.79387
C          8.52118        14.85188         1.01923
C          7.32784        14.16774         0.51391
C          8.54906        16.35957         0.91415
C          7.35296        17.05143         0.38587
C          8.58379        19.15805         0.79253
C          7.40394        18.49449         0.41054
C          8.53668        20.60588         0.99933
C          7.38699        21.36288         0.47940
C          8.66184        23.46837         0.67751
C          7.43780        22.76671         0.41443
C          8.67266        24.89132         0.68920
C          7.46705        25.62669         0.40320
C          8.60101        27.75088         1.21441
C          7.54135        27.10526         0.39139
C          8.62489        29.22551         1.27402
C          7.42701        29.92111         1.06708
C          8.68322        32.08235         1.68068
C          7.37049        31.33735         1.43957
C          8.68215        33.53155         1.40169
C          7.50050        34.20430         1.18762
C          8.79853        36.37914         1.10971
C          7.55245        35.62989         0.67701
C          8.77042        37.83759         0.99731
C          7.53247        38.50619         0.82872
C         10.98368         3.32834         0.59540
C          9.78977         3.96723         0.94358
C         11.10027         6.15608         1.42658
C          9.84720         5.34576         1.49731
C         11.05823         7.64987         1.41572
C          9.79498         8.32107         1.61975
C         11.00263        10.51269         1.35537
C          9.74116         9.77898         1.49447
C         11.03223        11.94181         1.24630
C          9.80115        12.71062         1.22950
C         11.05050        14.80417         0.85099
C          9.79019        14.07964         1.07461
C         11.08528        16.32249         0.80132
C          9.83364        17.08026         0.91382
C         11.10984        19.18461         1.06796
C          9.84227        18.46745         0.95399
C         11.14204        20.57912         1.09934
C          9.87815        21.34012         1.16381
C         11.12346        23.45079         0.84873
C          9.88404        22.77306         0.87195
C         11.12426        24.87945         0.90851
C          9.90009        25.56350         0.92902
C         11.12862        27.71097         1.50121
C          9.87378        26.96698         1.36801
C         11.06780        29.10898         1.72109
C          9.85408        29.88474         1.61788
C         11.17435        31.97833         1.84768
C          9.93209        31.30134         1.64807
C         11.28697        33.44184         1.50805
C         10.00486        34.20893         1.24297
C         11.24246        36.43069         1.53259
C          9.97692        35.70086         1.29616
C         11.23829        37.94209         1.25898
C          9.96154        38.55881         0.93741
C         13.44986         3.33241         0.52449
C         12.25616         3.99439         0.65055
C         13.52925         6.23360         0.76605
C         12.25609         5.48180         0.77047
C         13.56529         7.61597         1.37856
C         12.24472         8.35892         1.27655
C         13.48335        10.50124         1.12033
C         12.24281         9.79883         1.26711
C         13.50031        11.92355         1.12696
C         12.26954        12.64915         1.17818
C         13.51102        14.80392         1.11869
C         12.31051        14.08435         1.08938
C         13.55824        16.26502         1.13415
C         12.36152        17.02324         1.03661
C         13.59935        19.13906         1.19590
C         12.35819        18.44018         1.11267
C         13.64491        20.59306         1.16555
C         12.38147        21.31791         1.06034
C         13.61968        23.47080         0.61463
C         12.35331        22.71355         0.92111
C         13.58733        24.94070         1.02546
C         12.37216        25.61014         1.08403
C         13.59440        27.74464         1.51462
C         12.35831        27.02968         1.35034
C         13.48728        29.03245         2.06399
C         12.27404        29.77186         2.08125
C         14.20094        32.28427         1.72994
C         12.25666        31.19137         2.24297
C         13.88181        33.53297         1.20754
C         12.60649        34.21135         1.62979
C         13.67702        36.36788         0.70610
C         12.56532        35.70012         1.43819
C         13.60138        37.78302         0.43900
C         12.48072        38.55402         0.79833
C         15.95365         3.34721         0.14522
C         14.77748         3.98243         0.82405
C         15.97689         6.18220         0.59980
C         14.79532         5.48423         0.68719
C         15.97653         7.65493         0.63462
C         14.75732         8.37439         0.85570
C         15.92752        10.51628         0.67187
C         14.72872         9.79194         0.88320
C         15.95275        11.92002         0.83056
C         14.73464        12.64209         1.05106
C         15.98377        14.74023         1.29441
C         14.74813        14.07082         1.14301
C         16.11517        16.24484         1.53608
C         14.79047        16.96308         1.27485
C         16.10010        19.06492         1.25554
C         14.79233        18.36851         1.26358
C         16.15464        20.56497         1.29986
C         14.85215        21.31338         1.26571
C         15.92644        23.57569         1.35071
C         14.83367        22.75545         1.14339
C         16.02847        24.95776         0.93960
C         14.81579        25.69350         1.04599
C         16.10058        27.77321         0.83833
C         14.86500        27.10814         1.18247
C         16.22191        29.23298         0.79243
C         15.39867        30.10418         1.52985
C         16.19718        32.08984         0.33902
C         15.28003        31.48901         1.24169
C         16.03611        33.48661        -0.00371
C         14.86725        34.20053         0.42635
C         15.75691        36.25195        -0.62359
C         14.75025        35.61612         0.16785
C         15.71022        37.66920        -0.83975
C         14.65465        38.41212        -0.27645
C         18.33502         3.41012        -0.49681
C         17.13539         4.05315        -0.02526
C         18.39865         6.16809         0.10488
C         17.19559         5.47005         0.26675
C         18.44732         7.60347         0.44749
C         17.18350         8.34445         0.52733
C         18.47518        10.55192         0.36895
C         17.16487         9.81028         0.18953
C         18.46607        11.96622         0.50839
C         17.20248        12.61364         0.86408
C         18.80786        14.98919         0.59670
C         17.12850        13.93199         1.35079
C         18.39505        16.26523         0.15966
C         17.25397        16.93897         0.73627
C         18.14964        19.00862        -0.24959
C         17.19796        18.31402         0.57990
C         18.18670        20.44129        -0.25509
C         17.35309        21.17532         0.64015
C         18.41909        23.32157        -0.03745
C         17.65826        22.50885         0.85120
C         18.34066        24.77003        -0.05900
C         17.23002        25.56235         0.48554
C         18.29024        27.66139        -0.35519
C         17.19762        26.99935         0.32536
C         18.29478        29.07613        -0.56748
C         17.23604        29.87128         0.00014
C         18.38144        31.94411        -0.81445
C         17.24736        31.28276        -0.15720
C         18.23838        33.44057        -1.18392
C         16.98329        34.12446        -0.83095
C         17.76621        36.11483        -2.06075
C         16.82261        35.49510        -1.20538
C         17.73912        37.53394        -2.23402
C         16.72219        38.29051        -1.60993
C         19.50079         4.11404        -0.65981
C         20.71895         6.28492        -0.73205
C         19.56402         5.51385        -0.37737
C         20.77421         7.64240        -0.57199
C         19.73426         8.37612         0.15054
C         20.87410        10.59516        -0.03988
C         19.68214         9.86849         0.12194
C         20.84060        11.98286        -0.09191
C         19.65630        12.69183         0.17155
C         20.32232        14.71428        -1.22471
C         19.63595        14.13449        -0.12568
C         20.16080        16.06001        -1.51843
C         19.20032        16.86815        -0.84830
C         19.96017        19.01476        -1.89606
C         19.07874        18.29112        -1.04410
C         20.00568        20.39063        -1.87681
C         19.15467        21.14812        -1.02248
C         20.13173        23.32352        -1.77310
C         19.23212        22.59329        -0.95693
C         20.20325        24.69168        -1.66701
C         19.30963        25.43781        -0.84779
C         20.40573        27.53627        -1.58218
C         19.34223        26.88546        -0.91792
C         20.40085        28.90264        -1.78802
C         19.33512        29.69633        -1.32223
C         20.20014        31.76613        -2.44205
C         19.34227        31.13181        -1.56379
C         20.03927        33.13666        -2.81228
C         19.05713        33.94155        -2.29086
C         19.87517        36.05351        -3.41759
C         18.68972        35.27579        -2.91750
C         19.84553        37.42452        -3.49776
C         18.76842        38.17449        -2.98229
O          7.54331         8.08815         2.53376
O          6.21615         5.90993         2.14488
O          2.38462        13.51023         0.42385
O          4.93951        12.19908         1.09803
O         10.74352         5.49726         2.67857
O          8.29394        15.69237         2.22039
O         11.06926        15.51670        -0.45658
O          5.27857        26.49619        -1.64091
O          2.80223        31.56987         1.89498
O          2.02388        20.13815        -3.01169
O          7.44832        27.75532        -0.91986
O         13.40909        31.77876         2.76166
O         18.30544        14.53292         1.82632
O         12.70764         6.15271        -0.45936
O         10.78950        33.65217         0.11722
O          7.83699        31.65348         2.79916
O          9.02835        21.01687         2.31795
O         11.22729        37.35803         2.63691
O         16.44864        19.76721         2.49730
O         12.84308        35.08365         2.76662
O         19.43588         7.88828         1.50675
O         17.07261        23.09497         1.98474
O          2.78912        23.09178         0.75077
O          8.90690        27.12676         2.49229
O         18.99251        33.00109        -0.00610
O          5.03813        10.28271        -1.95370
O          3.92812         8.12657        -2.43512
O          7.53323        12.50440         2.23921
O          3.88901        18.88870         0.81930
O         14.64016        29.61528         2.59888
O          4.07277        14.77478        -2.50560
H          4.88362        15.26791        -2.75266
O          5.58382        21.43287        -2.00744
H          4.95641        21.98196        -2.52599
O         14.98883         3.72604         2.27841
H         15.79175         4.22050         2.55111
O          7.68179        35.50077        -0.78653
H          8.51450        35.01298        -0.96703
O         17.01934         9.79432        -1.30535
H         16.12411         9.44182        -1.50314
O          2.28358        35.71136         2.60996
H          1.49024        35.15718         2.77244
O         16.41331        16.42635         2.94246
H         17.26984        15.97623         3.11475
O         13.73942        23.48683        -0.85954
H         12.92491        23.90202        -1.21516
O         17.88785        34.92482        -4.11815
H         17.67719        35.76732        -4.57511
O         13.81549         7.40316         2.80501
H         13.81960         8.27825         3.24670
H          1.70835         2.39044        -1.57798
H         -0.14521         3.57244        -2.75331
H         -0.16437         6.04254        -2.89832
H         -0.55565         7.76208        -1.61946
H         -0.79990        10.18807        -1.36876
H         -0.86138        12.34032        -1.60059
H         -0.81448        14.76320        -1.56642
H         -0.61793        16.58761        -2.24944
H         -0.48346        18.97923        -2.72409
H         -0.55879        21.08879        -2.43239
H         -0.64642        23.46168        -1.98255
H         -0.71148        25.36190        -1.53850
H         -0.70423        27.77114        -1.30464
H         -0.61080        29.72771        -1.31095
H         -0.63511        32.12019        -0.92925
H         -0.78865        33.92301        -0.13128
H         -0.73552        36.37187        -0.01621
H          0.48440        38.49226         0.34580
H          3.85948         2.42905        -0.47647
H          2.62981        39.68380         0.70175
H          6.08281         2.42734         0.37577
H          5.08817        39.63196         0.76760
H          8.47257         2.35134         0.34426
H          7.53257        39.60303         0.74669
H         10.95832         2.26793         0.30185
H          9.94150        39.61494         0.63071
H         13.44696         2.23767         0.40465
H         12.44092        39.60229         0.46679
H         15.92835         2.26682        -0.06310
H         14.60902        39.49827        -0.44395
H         18.29990         2.33437        -0.72152
H         16.70438        39.38240        -1.74201
H         20.40486         3.60798        -1.02869
H         21.54326         5.76877        -1.24668
H         21.59649         8.20558        -1.03642
H         21.82685        10.06967        -0.18971
H         21.75989        12.53977        -0.32058
H         21.00575        14.10101        -1.82867
H         20.76537        16.49849        -2.32379
H         20.65502        18.46882        -2.54825
H         20.73699        20.89966        -2.51826
H         20.79040        22.80945        -2.48423
H         20.92509        25.21449        -2.30557
H         21.26791        26.96592        -1.94785
H         21.24793        29.36598        -2.31002
H         20.95972        31.18829        -2.98655
H         20.67054        33.50692        -3.63238
H         20.72768        35.50591        -3.84242
H         20.68835        37.95708        -3.96270
H         18.75942        39.26826        -3.08248
