         762
 CSIRO Nanostructure Databank - Neutral Graphene Oxide Data Set
C         23.03181        24.59486         2.20574
C         21.75636        25.24360         2.11404
C         22.75170        27.18884         0.96859
C         21.60215        26.46184         1.52798
C         22.72155        28.71344         0.87722
C         21.56092        29.53689         1.26095
C         22.84695        31.61784         0.90472
C         21.64867        30.89407         1.27517
C         22.82194        33.07235         0.74546
C         21.64234        33.84713         0.91260
C         22.82525        35.95538         0.55135
C         21.68680        35.25561         0.91861
C         23.07272        37.41437         0.87542
C         21.85050        38.25705         1.13369
C         22.87855        40.32572         0.24003
C         21.82141        39.58979         0.98599
C         23.09736        41.78623         0.42540
C         22.17136        42.52314         1.13819
C         23.28866        44.63494         0.62332
C         22.27068        43.92443         1.24379
C         23.28263        46.09095         0.67801
C         22.29523        46.83664         1.27716
C         23.36635        48.98560         0.79089
C         22.30410        48.27764         1.24956
C         25.54766        23.12220         2.11875
C         25.47849        24.54034         1.82659
C         24.17495        25.15399         1.67256
C         25.37125        27.22687         0.83211
C         24.08439        26.46689         0.99115
C         25.32716        28.71743         0.90012
C         24.03018        29.44572         0.95169
C         25.27435        31.52990         0.35110
C         24.03176        30.90503         0.68515
C         25.29372        33.01147         0.40169
C         24.01732        33.73643         0.43540
C         25.27720        35.90623        -0.22613
C         23.99527        35.17116         0.12248
C         25.28902        37.39045        -0.25700
C         24.12433        38.07558         0.00032
C         25.21508        40.23298        -0.82500
C         24.00699        39.51212        -0.31556
C         25.28700        41.69690        -0.72696
C         24.25474        42.44690        -0.15188
C         25.43111        44.57680        -0.63506
C         24.34069        43.90736        -0.07842
C         25.48403        46.06057        -0.65818
C         24.35884        46.82480        -0.02983
C         25.77249        48.94494        -0.26694
C         24.57507        48.26395         0.33595
C         25.80361        50.40750        -0.44575
C         27.95625        23.30508         2.70644
C         26.70197        22.51691         2.45675
C         27.96205        24.65531         1.99274
C         26.67376        25.27171         1.70140
C         27.81709        27.39788         1.11866
C         26.65864        26.63864         1.26767
C         27.76461        28.71156         0.54344
C         26.55804        29.42026         0.47543
C         27.68379        31.49633        -0.35860
C         26.46992        30.81009         0.16356
C         27.74069        32.99105        -0.37030
C         26.56903        33.75781         0.15380
C         27.75074        35.89579        -0.24820
C         26.56709        35.21015        -0.13284
C         27.74465        37.33739        -0.44428
C         26.55125        38.03945        -0.56217
C         27.76252        40.24844        -1.08354
C         26.53053        39.46665        -0.96406
C         27.74154        41.60283        -1.50647
C         26.42846        42.32865        -1.42621
C         27.73702        44.56242        -1.79276
C         26.45358        43.86305        -1.41595
C         27.98887        45.94931        -1.21837
C         26.74617        46.77747        -0.99432
C         27.91193        48.87185        -1.71414
C         26.80598        48.13765        -0.97416
C         28.10496        50.30874        -1.28931
C         26.91804        51.03305        -0.89129
C         30.51051        20.44707         2.77126
C         29.28321        21.12674         2.66622
C         30.48268        23.24934         2.43664
C         29.22402        22.50076         2.50619
C         30.43292        24.72933         2.15088
C         29.12885        25.35758         1.81202
C         30.35175        27.45258         0.92561
C         29.13652        26.87491         1.63650
C         30.31919        28.69178         0.31872
C         29.01168        29.31419         0.01722
C         30.26360        31.50675        -0.45591
C         28.98870        30.75310        -0.43101
C         30.22573        32.94169        -0.51361
C         29.04875        33.67306        -0.39191
C         30.30908        35.90669        -0.43166
C         29.04086        35.14676        -0.18766
C         30.29537        37.36523        -0.64688
C         29.02774        38.08019        -0.44050
C         30.27724        40.14901        -1.30565
C         29.01886        39.57318        -0.76580
C         30.25608        41.59389        -1.75116
C         28.94772        42.29496        -1.76180
C         30.32488        44.41568        -2.22779
C         28.97545        43.73123        -2.07674
C         30.35678        45.91635        -2.18691
C         29.14341        46.70388        -1.84613
C         30.42797        48.79900        -2.05949
C         29.19707        48.07563        -1.79945
C         30.50291        50.18178        -1.90335
C         29.32954        50.93170        -1.46111
C         30.60503        53.03498        -1.46953
C         29.48600        52.34530        -1.16409
C         33.09092        19.16212         3.33123
C         33.01017        20.42979         2.71014
C         31.74378        21.11673         2.60563
C         32.94865        23.14911         1.93234
C         31.74597        22.49999         2.29438
C         32.85261        24.50830         1.32140
C         31.70328        25.40684         1.69261
C         32.79945        27.33323         0.36026
C         31.65250        26.78934         1.11397
C         32.76728        28.67476        -0.06032
C         31.52553        29.39591        -0.08145
C         32.76222        31.49966        -0.57980
C         31.49246        30.79319        -0.41391
C         32.77422        32.94628        -0.75714
C         31.48594        33.64966        -0.85823
C         32.78752        35.87781        -0.90180
C         31.50263        35.15897        -0.92356
C         32.76199        37.32277        -0.84566
C         31.50338        38.03953        -0.80502
C         32.73930        40.18192        -0.95324
C         31.55014        39.47615        -0.95111
C         32.71426        41.69182        -0.94613
C         31.53815        42.33208        -1.65646
C         32.82110        44.42604        -1.86366
C         31.59021        43.70045        -1.90019
C         32.85081        45.84399        -2.01786
C         31.66144        46.58451        -2.09998
C         32.96691        48.74288        -2.53187
C         31.63347        48.02082        -2.40329
C         32.95583        50.20444        -2.27063
C         31.77173        50.87981        -2.06783
C         33.11299        53.12384        -2.13806
C         31.77658        52.36898        -2.06358
C         33.19794        54.52529        -1.69050
C         35.49073        19.16593         3.02300
C         34.32225        18.58139         3.56045
C         35.44618        20.35681         2.28966
C         34.20535        21.07583         2.26871
C         35.44462        23.23731         1.71995
C         34.15950        22.44667         1.86019
C         35.36557        24.46429         0.82635
C         34.04684        25.09564         0.63366
C         35.29942        27.21443        -0.26294
C         33.97437        26.50606         0.11569
C         35.23753        28.68162        -0.35433
C         34.01628        29.36041        -0.36893
C         35.23830        31.55904        -0.54305
C         33.96547        30.79428        -0.55228
C         35.23503        32.96915        -1.02291
C         33.94436        33.69279        -0.89844
C         35.24535        35.84709        -1.11970
C         33.95797        35.12936        -0.99714
C         35.21929        37.34257        -0.99867
C         33.94733        38.05776        -0.84294
C         35.22469        40.20183        -0.76551
C         33.98990        39.49115        -0.80940
C         35.23367        41.64245        -0.96532
C         34.05140        42.30729        -1.26959
C         35.32505        44.45075        -1.37482
C         34.13507        43.66985        -1.89918
C         35.30018        45.85374        -1.46337
C         34.11852        46.55710        -1.92480
C         35.31398        48.66746        -1.77483
C         34.16219        47.94395        -2.17185
C         35.53483        50.06204        -2.21770
C         34.25453        50.90835        -2.40224
C         35.61329        52.99619        -1.97494
C         34.36704        52.35234        -2.17205
C         35.64238        54.44968        -1.82908
C         34.39369        55.14189        -1.57730
C         38.51527        15.82921         1.67634
C         37.69927        16.51436         2.57938
C         37.82759        18.57378         1.25471
C         37.38138        17.87240         2.38641
C         37.72516        20.07347         1.01598
C         36.58926        20.92424         1.51596
C         37.84428        23.08508         1.10919
C         36.67634        22.41045         1.44930
C         37.81311        24.47690         0.76721
C         36.55890        25.15171         0.52685
C         37.79332        27.21252        -0.15534
C         36.56585        26.52133         0.04366
C         37.81395        28.64022        -0.58589
C         36.51016        29.38113        -0.63301
C         37.83884        31.57430        -0.74859
C         36.55577        30.86128        -0.48462
C         37.84526        32.96432        -0.89852
C         36.55788        33.68466        -1.12513
C         37.69004        35.81965        -0.63801
C         36.53949        35.14611        -0.90674
C         37.66115        37.26314        -0.26096
C         36.40560        38.04093        -0.43421
C         37.71096        40.14664        -0.54666
C         36.46740        39.51111        -0.57349
C         37.74848        41.60413        -0.79944
C         36.49316        42.35872        -0.90744
C         37.69434        44.52799        -0.49365
C         36.51278        43.77884        -0.94700
C         37.64868        45.98723        -0.45395
C         36.40787        46.59912        -0.93039
C         38.00734        49.06629        -0.67518
C         36.17990        47.98330        -0.90252
C         38.05456        50.19082        -1.43292
C         36.90277        50.79635        -2.19550
C         38.10209        52.95136        -1.85249
C         36.84285        52.28148        -1.92615
C         38.09073        54.38931        -2.16108
C         36.83092        55.14445        -2.01026
C         38.02396        57.28008        -2.24453
C         36.86847        56.58629        -2.12530
C         39.98283        14.51382        -0.65993
C         40.05231        15.88026        -0.34125
C         38.99463        16.48018         0.52425
C         40.27473        18.93707        -0.20355
C         38.54941        17.79928         0.32686
C         40.29002        20.14710         0.40827
C         39.05868        20.81195         0.91762
C         40.39012        22.97764         0.65668
C         39.12547        22.31527         1.08033
C         40.37728        24.45724         0.52751
C         39.06622        25.20239         0.53507
C         40.25481        27.27890        -0.37400
C         39.01444        26.55580        -0.03927
C         40.27093        28.75549        -0.27710
C         39.06675        29.43643        -0.42971
C         40.30184        31.58245        -0.65683
C         39.06628        30.86404        -0.61200
C         40.30139        32.99980        -0.85929
C         39.07151        33.68789        -0.95161
C         40.25157        35.95890        -0.59894
C         39.00627        35.17315        -0.90645
C         40.04248        37.15409         0.30939
C         38.91202        38.03620        -0.16177
C         40.29439        40.13868        -0.26715
C         38.93702        39.40976        -0.27720
C         40.20957        41.63611         0.06912
C         39.02729        42.39394        -0.43562
C         39.96012        44.49880         0.57796
C         38.85385        43.82252        -0.10759
C         40.01626        46.03893         0.39434
C         38.84745        46.72899        -0.19421
C         40.34902        48.72579        -0.48806
C         39.08356        48.13292        -0.46733
C         40.53562        50.09347        -1.04241
C         39.37142        50.82055        -1.66068
C         40.58182        53.03576        -1.45660
C         39.35785        52.30752        -1.71533
C         40.59391        54.44565        -1.55305
C         39.42342        55.13882        -2.12004
C         40.53861        57.44950        -1.80737
C         39.34758        56.63921        -2.17857
C         40.54779        58.93793        -1.63096
C         42.21705        14.57574        -1.59931
C         41.04190        13.87958        -1.30952
C         42.32953        15.93947        -1.28620
C         41.21360        16.60604        -0.72927
C         42.76023        18.60775        -0.01834
C         41.39974        17.99549        -0.21137
C         42.86747        20.04448         0.43794
C         41.59131        20.80871         0.67821
C         42.81885        22.93171         0.10418
C         41.55958        22.28105         0.49047
C         42.80280        24.34143        -0.00699
C         41.50224        25.00366        -0.33987
C         42.77776        27.29818        -0.06837
C         41.56587        26.53269        -0.40441
C         42.76035        28.70522        -0.16481
C         41.52206        29.44097        -0.28923
C         42.77158        31.54236        -0.33488
C         41.53709        30.85734        -0.44724
C         42.91093        32.97725        -0.77289
C         41.59429        33.74687        -0.88816
C         42.70506        35.85484         0.15751
C         41.57415        35.24795        -0.56732
C         42.55129        37.14157         0.89074
C         41.27472        37.93249         0.72936
C         42.53537        40.17271         1.08242
C         41.27342        39.43183         0.70560
C         42.59543        41.62701         0.77900
C         41.32122        42.30513         0.50284
C         42.52086        44.52882         0.63947
C         41.24940        43.74634         0.97726
C         42.54015        46.00216         1.03828
C         41.33213        46.71231         0.44550
C         42.63274        48.83615         0.55577
C         41.46588        48.02391         0.04884
C         42.76271        50.23085        -0.02298
C         41.71085        50.88915        -0.63993
C         42.93537        52.99391        -0.61199
C         41.76229        52.30476        -0.94328
C         42.99589        54.47359        -0.70075
C         41.74245        55.25533        -1.04169
C         42.88152        57.42136        -2.10194
C         41.79163        56.81007        -1.22097
C         42.84350        58.74256        -2.39956
C         41.70440        59.54787        -1.96746
C         44.83617        16.02881        -1.97491
C         43.58964        16.71145        -1.57064
C         45.13473        18.73253        -0.97962
C         43.80890        18.06709        -0.93549
C         45.23705        20.08601        -0.60299
C         44.21406        20.76627         0.29672
C         45.18287        22.92442        -0.58661
C         44.01769        22.22038        -0.05975
C         45.23334        24.45097        -0.45376
C         44.04287        25.08339         0.14216
C         45.30816        27.30175        -0.08200
C         44.04845        26.61541         0.19577
C         45.27044        28.72703        -0.08178
C         43.99345        29.42492        -0.05640
C         45.17967        31.57746         0.27709
C         43.95770        30.83520        -0.07694
C         45.20647        33.04794         0.19070
C         44.02579        33.74309        -0.08150
C         45.14589        35.82086         0.57192
C         43.94801        35.15514         0.20256
C         45.13245        37.21599         1.05885
C         43.81171        37.88932         1.29174
C         45.10588        40.16338         1.41564
C         43.79672        39.40111         1.42347
C         45.06570        41.67663         1.21076
C         43.77826        42.32266         0.85740
C         45.10306        44.51471         0.75470
C         43.82034        43.78008         0.57761
C         45.09858        45.92768         0.74981
C         43.86552        46.67147         0.69284
C         45.14261        48.76796         0.65596
C         43.91194        48.04462         0.53896
C         45.09072        50.20417         0.72984
C         43.96280        50.93333         0.30952
C         45.13838        53.10410         0.54180
C         44.02662        52.35925         0.08352
C         45.38038        54.44451         0.04381
C         44.36821        55.06386        -0.74349
C         46.01565        56.72008        -1.49135
C         44.74509        56.13651        -1.56656
C         46.03437        16.66652        -1.98554
C         47.47561        18.72261        -1.71304
C         46.21950        18.04999        -1.58426
C         47.54010        20.10430        -1.43911
C         46.41921        20.80282        -0.92203
C         47.58070        23.01511        -1.14511
C         46.46500        22.24659        -0.77976
C         47.61083        24.47498        -1.07592
C         46.50526        25.16199        -0.56497
C         47.71776        27.30275        -0.62205
C         46.52992        26.59962        -0.38737
C         47.79682        28.66436        -0.00140
C         46.48719        29.41356        -0.07781
C         47.75998        31.58430         0.25037
C         46.50763        30.82344         0.28351
C         47.66683        32.96874         0.51657
C         46.43990        33.70208         0.48264
C         47.59899        35.90057         0.48292
C         46.41428        35.15100         0.54090
C         47.56362        37.39154         0.22777
C         46.39814        38.01893         0.97007
C         47.55765        40.20667         0.98672
C         46.37311        39.49879         1.06898
C         47.55559        41.67104         0.97711
C         46.33926        42.37481         0.91730
C         47.57618        44.52394         0.85994
C         46.32995        43.80542         0.83227
C         47.57071        45.93190         0.81272
C         46.34908        46.64199         0.78860
C         47.58424        48.79846         1.14025
C         46.35088        48.07681         0.84582
C         47.51344        50.21664         1.45838
C         46.20680        50.90100         1.35329
C         47.43203        53.16484         1.68387
C         46.16479        52.44014         1.35106
C         47.64227        54.58979         1.17240
C         46.62921        55.11210         0.21927
C         46.92188        56.24863        -0.54628
C         49.88538        18.64720        -2.21965
C         48.67345        18.04408        -2.18082
C         50.07509        20.05122        -1.80164
C         48.82383        20.84768        -1.53043
C         49.45703        23.07845        -2.60370
C         48.70811        22.32516        -1.72753
C         49.37543        24.51712        -2.65956
C         48.69279        25.23303        -1.68039
C         50.21199        27.46116        -1.23386
C         48.81687        26.77002        -1.52800
C         50.16547        28.84111        -0.86426
C         48.99820        29.49113        -0.38407
C         50.23272        31.57553         0.14461
C         48.99910        30.88233        -0.01247
C         50.20600        32.93957         0.72251
C         48.90543        33.70517         0.80047
C         50.13444        35.91262         0.25977
C         48.87587        35.22635         0.69882
C         50.14975        37.45757         0.15299
C         48.84646        38.12164         0.56094
C         50.11906        40.22847         0.87207
C         48.81585        39.45900         0.83818
C         50.00385        41.63624         1.41536
C         48.79045        42.40377         1.01901
C         50.07290        44.54859         1.14606
C         48.81611        43.80056         0.99546
C         50.09428        45.91523         1.07342
C         48.86189        46.69300         0.64002
C         50.04313        48.86274         1.33078
C         48.78912        48.10928         1.17854
C         49.97460        50.32220         1.64929
C         48.64432        50.95066         1.78720
C         49.83648        53.04529         2.23398
C         48.63608        52.37987         1.98125
C         49.99138        54.42894         1.87766
C         49.01373        55.10955         1.21370
C         52.57618        20.20682        -1.53256
C         51.38848        20.70803        -2.10736
C         52.68576        22.61706        -2.88316
C         51.48148        21.91383        -2.80669
C         52.75599        24.99958        -2.80780
C         51.69873        25.43841        -1.85387
C         52.65770        27.67365        -1.80939
C         51.49055        26.91563        -1.66859
C         52.66115        29.12793        -1.55818
C         51.36192        29.71907        -1.04632
C         52.70798        31.63911        -0.16428
C         51.45702        31.00198        -0.30542
C         52.77027        32.96800         0.47897
C         51.48505        33.70580         0.73431
C         52.71782        35.92742         0.32784
C         51.42724        35.15684         0.33849
C         52.67010        37.39278         0.69654
C         51.33121        38.00816         0.96480
C         52.55496        40.10670         1.85351
C         51.26591        39.41337         1.46711
C         52.56676        41.61442         1.93374
C         51.26982        42.36313         1.70844
C         52.64859        44.48057         1.43558
C         51.36491        43.74968         1.09229
C         52.67511        45.95269         1.28416
C         51.37255        46.68075         1.12544
C         52.49680        48.77507         2.24900
C         51.37051        48.15819         1.45613
C         52.22029        50.12584         2.79967
C         51.11786        50.92019         2.36674
C         51.93141        52.89388         3.56482
C         50.99037        52.28323         2.71587
C         53.79331        20.87502        -1.66111
C         55.14869        22.82200        -2.55659
C         53.88717        22.10786        -2.34887
C         55.19586        25.05492        -3.06755
C         53.93534        25.69667        -2.82118
C         55.19732        27.83425        -2.36832
C         53.83659        27.18268        -2.64837
C         55.20634        29.20126        -1.73123
C         53.94319        29.81650        -1.27397
C         55.21184        31.76667        -0.43306
C         53.95764        31.06386        -0.62255
C         55.29987        33.10023         0.04514
C         54.04177        33.74862         0.48555
C         55.16147        35.94396         0.56782
C         54.00057        35.22660         0.49244
C         55.13603        37.38747         0.80263
C         53.91573        38.04035         1.09823
C         55.13464        40.20963         1.56800
C         53.88697        39.40784         1.65353
C         55.15075        41.58784         1.63899
C         53.87778        42.34510         1.84342
C         55.10286        44.55789         1.54626
C         53.82395        43.80854         1.57364
C         55.11519        45.95306         2.01850
C         53.87752        46.73333         1.77358
C         54.95767        48.58186         2.99483
C         53.71227        48.08541         2.37867
C         54.99473        49.66210         3.90157
C         52.99426        50.74242         3.81279
C         52.89169        52.09417         4.16740
C         57.50496        23.40339        -2.08185
C         56.32826        22.59637        -1.90542
C         57.55856        24.74265        -2.40174
C         56.39281        25.59464        -2.60889
C         57.61457        27.63112        -1.86026
C         56.43621        27.01175        -2.25212
C         57.66827        29.02563        -1.45541
C         56.49253        29.73898        -1.26404
C         57.78070        31.80326        -0.49964
C         56.47826        31.15310        -0.86568
C         57.80778        33.00712         0.43404
C         56.49662        33.77975         0.30921
C         57.73108        36.01002         0.66342
C         56.45263        35.20348         0.69383
C         57.55230        37.46406         0.23180
C         56.35302        38.08910         0.87158
C         57.69255        40.21760         1.31043
C         56.39319        39.44829         1.42059
C         57.61849        41.68684         1.35993
C         56.40314        42.31944         1.54266
C         57.61462        44.51912         1.95757
C         56.39731        43.80445         1.52180
C         57.56844        45.85350         2.28842
C         56.30476        46.58985         2.29484
C         57.42252        48.68458         3.04109
C         56.23510        47.98395         2.72706
C         57.37593        49.90715         3.72757
C         56.16024        50.35509         4.23764
C         60.09015        24.84836        -2.79724
C         58.87794        25.41084        -2.19161
C         60.15876        27.62518        -2.00351
C         58.89434        26.87874        -1.83594
C         60.15866        29.02619        -1.60292
C         58.96580        29.63794        -1.20734
C         60.32730        31.77502        -0.65880
C         59.01968        30.96666        -0.57493
C         60.22309        33.25525        -0.56408
C         59.09396        33.84137         0.20615
C         60.07701        36.15831        -0.37553
C         59.04641        35.35890         0.32546
C         60.01801        37.68057        -0.44936
C         58.81851        38.28110         0.26490
C         60.03374        40.44900         0.22274
C         58.84023        39.58855         0.62007
C         60.04843        41.81962         0.87674
C         58.87565        42.40964         1.32080
C         60.19660        44.58137         1.79363
C         58.89003        43.76995         1.89905
C         60.09403        46.05510         1.93865
C         58.84260        46.58058         2.53960
C         59.87494        48.89951         2.33280
C         58.76200        48.06714         2.81018
C         61.24042        25.57607        -2.83100
C         61.28799        26.94197        -2.39873
C         61.37352        29.80236        -1.67989
C         61.43934        31.11899        -1.34383
C         61.17821        34.08056        -1.09022
C         61.09770        35.51142        -1.00947
C         61.28455        38.32757         0.07794
C         61.29016        39.62302         0.41732
C         61.23477        42.61953         0.71990
C         61.29066        43.93715         1.06630
C         61.13477        46.90523         1.68627
C         61.00712        48.32989         1.84228
O         39.07465        18.48489        -0.78290
O         41.81128        34.74360        -1.93327
O         43.90983        56.61575        -2.58567
O         26.20968        33.46448         1.54106
O         30.23844        40.46160        -2.72623
O         53.58680        33.06857         1.71399
O         42.07977        54.96929         0.36804
O         30.34017        45.16727        -3.47518
O         33.02118        24.30940        -0.12853
O         40.92597        26.95300        -1.67160
O         32.03289        26.52441         2.57794
O         40.33059        50.13166        -2.51636
O         35.35906        36.72342        -2.31404
O         25.63774        39.71164        -2.11604
O         55.16391        23.75855        -3.62316
O         45.16431        41.07269         2.54987
O         42.35891        20.25960         1.79888
O         59.54669        34.52071         1.41825
O         40.30164        57.11365        -3.20941
O         43.08002        44.21328        -0.64836
O         39.69356        35.99470        -1.92932
O         32.23090        48.34059        -3.71431
O         40.78950        38.73294         1.87746
O         35.93599        31.35857         0.75518
O         24.35424        46.60039        -1.47670
O         59.06555        47.11434         3.88986
O         36.83427        48.77727         0.02415
O         40.89748        40.00680        -1.52192
O         45.73222        51.67242         2.51368
O         39.32918        21.42787         2.22955
O         44.85451        23.81664        -1.72175
O         25.95527        43.10632        -2.56017
O         29.10861        39.11157         0.62182
O         51.59057        47.67874         0.07217
O         24.77738        29.15857         2.20110
O         22.85516        39.88454        -1.16581
O         28.92188        29.66278        -1.41193
O         52.64720        23.83211        -3.57744
O         34.45268        26.55781        -1.26184
O         37.14671        28.90707        -1.87066
O         53.23648        42.07266         3.14630
O         50.93680        33.20654         1.98004
O         43.29212        17.94392        -2.32005
O         24.77012        26.54325        -0.30644
O         51.75018        29.87233        -2.45782
O         51.19004        24.61161        -1.08995
O         59.78868        43.90611         3.03315
O         39.59842        45.38878         1.66720
O         46.04951        37.37054         2.22027
O         43.04044        37.14672         2.27474
O         59.89538        31.08655         0.56513
O         53.21224        39.48105         2.97609
O         55.83358        44.35613         0.26805
O         34.96771        50.30958        -3.53978
O         42.18900        17.81679         1.05153
O         53.62769        46.51421         0.32720
O         38.72220        42.03436        -1.81096
O         40.03141        25.16918         1.73153
O         50.38419        22.49612        -3.48510
O         31.29916        34.38104        -2.13957
O         53.83529        49.97505         4.61972
O         24.41967        35.38930        -1.31532
O         29.91082        35.54700         0.94634
O         36.75697        37.52975         0.89758
O         50.95038        38.29216         2.33730
O         55.32879        29.01591        -3.22721
O         30.55046        24.29999         3.55137
O         42.92036        39.88392         2.46449
O         36.67206        18.50899         3.39615
O         36.68079        20.42689         0.07797
O         32.24525        52.94472        -3.32446
O         38.88314        54.62004        -3.37520
O         47.15325        54.31406         2.53288
O         50.69677        35.28638        -0.94072
O         49.69549        20.38508        -0.41902
O         52.75149        36.93991        -0.73130
O         59.00569        25.84545        -0.78694
O         57.32715        39.57532         2.57256
O         44.15017        25.77245         1.42483
O         57.23991        32.06736        -1.81630
O         35.86609        33.19239        -2.32861
O         27.41992        32.25109        -1.59839
O         57.19104        35.60141         1.92691
O         25.75226        48.52888         1.17775
O         50.20631        49.90095         0.26474
O         28.08926        44.24818        -3.14319
O         22.50279        27.87527        -0.29926
O         48.88230        34.54263         1.99396
O         45.74508        31.09283         1.53302
O         50.35168        42.02039         2.78710
O         50.13748        25.14133        -3.60121
H         50.63861        24.44311        -4.09086
O         50.51012        40.46590        -0.51398
H         50.40644        39.62035        -1.02242
O         41.25067        43.66390         2.43214
H         40.39388        43.29427         2.73209
O         34.39806        43.43852        -3.33347
H         35.27224        42.99982        -3.41325
O         53.42023        27.61022        -3.98362
H         53.81069        28.50919        -4.12283
O         37.41106        50.71125        -3.56294
H         36.64398        50.81912        -4.17282
O         29.26655        27.37965         3.00951
H         30.15909        27.10457         3.33031
O         49.04567        46.87727        -0.80512
H         49.88163        47.39477        -0.91509
O         57.25180        37.33481        -1.22606
H         56.76233        38.13829        -1.50641
O         28.45814        45.63357         0.14790
H         28.46691        46.46516         0.66986
O         41.17902        24.48399        -1.66533
H         41.03327        25.26286        -2.25742
O         43.41473        32.82217        -2.14522
H         43.14161        33.63513        -2.63502
O         39.56572        36.51441         1.53251
H         39.57496        37.20093         2.23919
O         44.85044        20.76077         1.60863
H         44.12044        20.75962         2.27383
O         59.89158        40.71786        -1.20221
H         59.97167        39.84699        -1.67263
O         51.52506        43.43896        -0.33352
H         51.63312        44.28280        -0.82330
O         50.30518        37.80374        -1.24713
H         51.06392        37.25849        -1.58490
O         35.62941        23.79475         3.08758
H         36.53842        24.16382         3.13722
O         23.74886        37.34469         2.19752
H         23.12370        36.93379         2.83285
O         47.96178        28.41092         1.45330
H         47.73822        29.23813         1.93385
O         32.48281        42.05388         0.47965
H         33.17561        41.60559         1.01172
O         47.32563        37.60931        -1.19719
H         48.19498        37.55464        -1.65703
O         48.49151        27.33603        -2.83948
H         49.14742        26.98290        -3.48168
O         41.96162        57.40730         0.08372
H         42.22612        56.68581         0.70704
O         42.31519        49.05282         1.97195
H         42.35035        48.17216         2.41876
O         42.44363        46.10628         2.48669
H         41.78450        45.43184         2.79093
O         27.43158        48.97125        -3.09500
H         27.41276        48.06962        -3.48253
O         59.89319        38.03566        -1.86534
H         59.00360        37.71141        -2.14561
O         27.94579        23.63906         4.13466
H         28.81795        24.06668         4.32585
O         57.84245        32.50897         1.78390
H         58.22185        33.22377         2.34591
H         23.08216        23.63697         2.74071
H         20.88143        24.72696         2.53258
H         20.60528        26.91603         1.44432
H         20.59682        29.04846         1.46048
H         20.74957        31.46904         1.53548
H         20.68653        33.35899         1.14048
H         20.77624        35.79852         1.21162
H         21.00264        37.76512         1.63490
H         20.92098        40.13969         1.29777
H         21.30875        42.03033         1.60469
H         21.48397        44.45176         1.79799
H         21.44584        46.35230         1.77701
H         23.37235        50.08306         0.84005
H         21.42271        48.80427         1.64170
H         24.63425        22.52062         2.00816
H         24.92961        50.99821        -0.13888
H         26.69871        21.43800         2.66158
H         26.91353        52.13028        -0.94774
H         30.49161        19.36442         2.95087
H         28.36300        20.53605         2.76596
H         30.63158        54.11931        -1.29965
H         28.64255        52.88921        -0.71956
H         32.18449        18.67196         3.70939
H         32.27461        55.09707        -1.53110
H         34.40762        17.64460         4.12562
H         34.42255        56.20094        -1.28748
H         38.82061        14.79628         1.89371
H         37.34551        16.01347         3.48952
H         38.00092        58.36742        -2.40020
H         35.91781        57.13422        -2.17040
H         39.08956        13.93728        -0.38168
H         39.64258        59.49442        -1.35238
H         43.05514        14.03948        -2.06412
H         40.96693        12.81304        -1.56212
H         43.65271        59.20912        -2.97623
H         41.80083        60.64269        -1.95412
H         44.79757        14.96662        -2.25474
H         46.26936        57.55896        -2.15063
H         46.91517        16.09694        -2.31309
H         47.88875        56.75608        -0.43792
H         50.75524        18.10607        -2.62047
H         48.59669        17.00022        -2.51430
H         50.99070        54.87774         1.97148
H         49.24591        56.08496         0.76519
H         52.53501        19.27019        -0.96049
H         51.83228        53.95294         3.83645
H         54.69497        20.43498        -1.21322
H         53.55674        52.49268         4.94398
H         58.45152        22.93771        -1.76475
H         56.39514        21.76928        -1.18398
H         58.30754        50.43248         3.97715
H         56.11027        51.20713         4.92692
H         60.04353        23.84926        -3.25423
H         59.75683        49.99292         2.32921
H         62.15365        25.13669        -3.25680
H         62.25539        27.45710        -2.46925
H         62.25938        29.33923        -2.13470
H         62.34621        31.69327        -1.57930
H         62.03423        33.65491        -1.63148
H         61.87185        36.09977        -1.52226
H         62.18804        37.70922         0.18664
H         62.20462        40.09529         0.80617
H         62.08981        42.17301         0.19259
H         62.16001        44.53995         0.76714
H         62.08622        46.51440         1.29861
H         61.83955        48.96422         1.50666
