         276
 CSIRO Nanostructure Databank - Neutral Graphene Oxide Data Set
C        -10.88250         1.06824        -1.14485
C         -9.94315         1.70711        -0.14926
C         -8.70828         0.83859         0.17392
C         -7.41712         1.48721         0.53925
C         -6.16086         0.68078         0.70326
C         -4.95982         1.34411         1.38147
C         -3.67827         0.74549         0.80819
C         -2.61343         1.37666         1.73104
C         -1.26982         0.69085         1.45259
C          0.03127         1.41116         1.30811
C          1.32921         0.67227         1.49590
C          2.57708         1.51953         1.74144
C          3.86385         0.78148         1.36946
C          4.96914         1.44910         0.59189
C          5.89243         0.52932        -0.18244
C          7.04650         1.18253        -0.89013
C          8.38816         0.50312        -0.95149
C          9.67920         1.26418        -0.58944
C         10.90867         0.56112        -1.14188
C         -9.58105         3.14203        -0.49941
C         -8.41575         3.74694        -0.16117
C         -7.18478         2.94767         0.23057
C         -6.36817         3.54309         1.37982
C         -4.99373         2.87177         1.37298
C         -3.82566         3.57088         1.49469
C         -2.53614         2.86960         1.48991
C         -1.36320         3.52426         1.23559
C         -0.03077         2.89991         1.49728
C          1.23578         3.70083         1.40302
C          2.45835         2.89239         1.04037
C          3.63712         3.61991         0.44839
C          4.99997         2.95891         0.26707
C          5.68264         3.29176        -1.06774
C          6.85035         2.60024        -1.26585
C          8.82764         3.64394        -1.27141
C          9.74972         2.78351        -0.70660
C         -8.16897         5.17779        -0.38121
C         -7.15535         5.80422         0.27415
C         -6.30322         5.04754         1.23081
C         -5.06295         5.82642         1.44242
C         -3.78189         5.06680         1.48904
C         -2.62822         5.66642         0.75912
C         -1.39514         4.82819         0.46688
C         -0.20034         5.73903         0.68533
C          1.15067         5.17139         1.02195
C          2.32607         5.85606         0.41406
C          3.62053         5.13165         0.57071
C          4.44299         5.43430        -1.76681
C          5.53401         4.59931        -1.69774
C          7.53186         5.76367        -1.43083
C          8.67678         5.03824        -0.98797
C         -6.52283         7.12601        -0.01504
C         -6.32328         8.12951         1.13927
C         -5.18636         7.18601         0.76963
C         -3.88289         7.80724         0.30020
C         -2.90071         6.77791        -0.26601
C         -1.55122         7.24640        -0.84566
C         -0.29752         7.08941         0.00248
C          0.97535         7.82759        -0.33262
C          2.24140         7.04213        -0.27629
C          3.36939         7.65334        -1.07807
C          4.52709         6.92922        -1.73370
C          5.90284         7.66485        -1.84295
C          7.06987         7.02110        -1.08502
C         -6.18848         9.54004         0.68435
C         -5.09508        10.04171         0.08709
C         -3.82927         9.26854        -0.05114
C         -2.81132         9.82839        -0.99225
C         -1.49539         9.78625        -0.82728
C         -0.20209        10.02240        -0.71338
C          0.95684         9.12535        -1.17419
C          2.27891         9.83514        -0.95137
C          3.43935         9.13939        -0.90121
C          4.75029         9.76994        -0.94393
C          5.83747         9.11244        -1.38458
C        -10.89775        -0.24362        -1.42438
C         -9.80045        -1.16762        -1.03919
C         -8.62689        -0.58592        -0.31771
C         -7.23160        -1.03229        -0.76761
C         -6.12001        -0.57586         0.19514
C         -5.00003        -1.53855         0.55511
C         -3.72991        -0.78907         1.01944
C         -2.43514        -1.53142         1.14197
C         -1.19593        -0.79603         1.56578
C          0.11757        -1.49077         1.55119
C          1.37371        -0.68542         1.58288
C          2.61136        -1.47949         2.02373
C          3.90910        -0.72515         1.67218
C          5.11400        -1.51031         1.25646
C          6.00591        -0.91171         0.19406
C          7.19727        -1.77932        -0.24735
C          8.47139        -1.02604        -0.75548
C          9.81763        -1.67882        -1.01233
C         10.98821        -0.77626        -1.22630
C         -9.58441        -2.38823        -1.92805
C         -8.48634        -3.25950        -1.35211
C         -7.20498        -2.52063        -1.13184
C         -5.93644        -3.28035        -0.96689
C         -4.68336        -2.47957        -0.60807
C         -3.41814        -3.36685        -0.35362
C         -2.24101        -2.80599         0.37613
C         -0.99209        -3.68293         0.58632
C          0.16117        -2.94784         1.23076
C          1.30882        -3.64498         1.39045
C          2.61562        -2.88219         1.33813
C          3.84110        -3.73215         1.68224
C          5.12594        -3.02012         1.43039
C          6.41509        -3.69721         1.14658
C          7.43121        -2.86700         0.78688
C          9.24812        -3.90633        -0.03779
C         10.04056        -3.15619        -0.88543
C         -8.50956        -4.61192        -1.36994
C         -7.37998        -5.41489        -0.81670
C         -6.06198        -4.70578        -0.54462
C         -4.81850        -5.49696        -0.24884
C         -3.44019        -4.90157        -0.51356
C         -2.39042        -5.69232         0.28745
C         -1.34618        -5.03757         1.18022
C         -0.05090        -5.96102         1.46829
C          1.33067        -5.14931         1.63434
C          2.54695        -5.83959         1.01089
C          3.83978        -5.21846         1.43909
C          5.16683        -5.89836         1.22076
C          6.59005        -5.20084         1.37679
C          7.64855        -5.85342         0.43457
C          8.79153        -5.23562        -0.17916
C         -7.26440        -6.85407        -1.12236
C         -6.11832        -7.57961        -0.91890
C         -4.92221        -6.99903        -0.25846
C         -3.68947        -7.87308        -0.06871
C         -2.41688        -7.07351         0.18648
C         -1.18487        -7.80526         0.24591
C          0.03585        -7.16237         0.53510
C          1.27055        -7.82244         0.29035
C          2.51664        -7.12706         0.52269
C          3.80182        -7.94240         0.47312
C          5.09466        -7.11101         0.31080
C          6.33875        -8.00379         0.58355
C          7.51513        -7.19395         0.12598
C         -5.92469        -8.84296        -1.61609
C         -4.70552        -9.42525        -1.78167
C         -3.51468        -8.96646        -1.09017
C         -2.31068        -9.58930        -1.15347
C         -1.23167        -9.26756        -0.13764
C          0.10867        -9.83249        -0.48496
C          1.27477        -9.19042        -0.20314
C          2.56575        -9.97785        -0.38623
C          3.76498        -9.04268        -0.60184
C          5.07657        -9.79704        -0.64103
C          6.22011        -9.33301        -0.12174
O         -6.00953         5.66253         2.54899
O         -8.35647         1.07483         1.58255
O         -7.03555        -4.92495         0.51695
O         -0.32141        -6.61026         2.67582
O         -7.02931         3.22774         2.60925
O          0.65283         3.39093         2.69240
O          0.34269         5.87674         2.00897
O          5.19270        -0.47945        -0.96223
O          4.65083        -3.34713         2.80507
O         -2.35908        -2.66183        -1.08228
O         -1.44836         7.33282        -2.06850
O         -0.65452        -1.29128         2.81674
O         -5.03498        -6.22928         0.98559
O          8.83248        -1.52394        -2.09683
O         -6.35995        -2.89682        -2.31034
O          0.22722         8.09086         0.90219
O          4.62017         5.75401         0.93429
O          3.40743         7.43317        -2.55240
O         -3.30679         8.75950         1.22355
O         -3.23118         1.11663         3.03737
O         -0.76172         1.05102         0.10834
O          7.85414         3.06706        -2.12402
O          5.02408         1.36184         2.04064
O         -2.74883         5.83533         2.18875
O         -9.52606        -1.49351         0.36709
O          7.59462         0.61976        -2.15492
O          2.63385         2.96533        -0.39667
O          8.74521        -3.20740         1.06934
O         -3.34958        -1.40187         2.27993
O          5.04060        -0.91795         2.57861
O          4.49843        -6.03466         2.49776
O          6.68826         5.11494        -2.33717
O          6.24676         7.67821        -3.24656
H          5.43289         7.90584        -3.74481
O          3.85686        -8.61407         1.74880
H          4.01369        -7.92188         2.43731
O         -3.93322        -8.56896         1.19756
H         -4.23203        -7.88341         1.83992
O          1.65502        -5.20143         3.03937
H          1.01637        -5.88592         3.40763
O          0.84005         8.82897        -2.56842
H         -0.01342         8.35470        -2.71233
O          2.50079        -1.66861         3.42827
H          2.67430        -0.81912         3.88378
O          2.76597        -2.55780        -0.08328
H          2.70041        -3.38278        -0.60970
O         -4.40110        -1.59658        -1.70691
H         -4.19886        -2.14227        -2.49625
O         -2.02226        -4.87009         2.42208
H         -1.60604        -5.57582         3.01237
O         -1.61204        -9.95065         1.10121
H         -2.47688        -9.55898         1.39718
O          2.77337       -10.84689         0.72191
H          3.05607       -10.28976         1.48600
O         -3.59186         6.13749        -1.36375
H         -3.09634         6.36891        -2.18708
O         -7.08189         8.02946         2.29746
H         -6.93833         7.13509         2.69316
O          5.18887        -6.55125        -1.01473
H          4.73960        -7.15982        -1.65295
O         -4.73538         0.96979         2.80315
H         -6.65654         3.81435         3.30385
O          2.65118         1.74947         3.16062
H          3.59634         1.91160         3.38480
O          5.90252         3.49482         1.26310
H          5.81639         4.48126         1.25641
O          6.70646        -2.55119        -1.37122
H          6.59608        -1.92651        -2.12285
O          7.01845        -5.49869         2.71505
H          6.30754        -5.17875         3.31794
O         -6.99644        -0.29105        -2.00255
H         -6.10318        -0.58155        -2.31470
O        -10.73321         1.81801         1.06353
H        -10.09704         1.76497         1.81641
O         -5.49650        -2.38012         1.60263
H         -5.31475        -1.96207         2.47268
O         -9.19558        -1.95878        -3.24109
H         -8.32778        -1.49941        -3.16533
O         -3.14958        -5.17692        -1.90736
H         -2.30892        -4.70547        -2.11024
O          9.71255         1.00993         0.85889
H         10.53769         1.39538         1.22219
O         -0.47708        -4.06438        -0.72944
H         -0.30153        -3.24405        -1.23981
O          3.55055        -8.41402        -1.90327
H          3.68606        -9.09562        -2.59476
O          3.16052         4.94839        -1.90577
H          2.64587         5.67802        -2.33006
O         -1.35064         4.49401        -0.94196
H         -2.14380         3.96269        -1.16900
O         -6.29589         2.98065        -0.92022
H         -6.72349         2.50329        -1.66258
O          6.48374        -8.25260         2.00006
H          6.75980        -7.40942         2.43838
O         -3.49620         1.05313        -0.56271
H         -2.57039         0.84425        -0.81936
H         11.92778        -1.24934        -1.55262
H         11.79421         1.17508        -1.36810
H         10.51790         3.23110        -0.05403
H          9.39913         5.52515        -0.31774
H          7.63406         7.65019        -0.38093
H          6.78813         9.66096        -1.47024
H          4.81443        10.83960        -0.69232
H          2.29279        10.93546        -0.92001
H          0.08990        10.95240        -0.18915
H         -3.21121        10.30450        -1.90728
H         -5.08740        11.08723        -0.25562
H         -7.06666        10.18341         0.84417
H         -6.60019         7.52722        -1.03963
H         -8.79169         5.71715        -1.11078
H        -10.41820         3.77161        -0.84296
H        -11.69207         1.71004        -1.52537
H        -11.66963        -0.64918        -2.09698
H        -10.53714        -2.96383        -2.03018
H         -9.41510        -5.14662        -1.69606
H         -8.07285        -7.30638        -1.71828
H         -6.79968        -9.27169        -2.12717
H         -4.61574       -10.32553        -2.40747
H         -2.16352       -10.45128        -1.82261
H          0.13618       -10.87404        -0.84044
H          2.45670       -10.62791        -1.29805
H          5.06268       -10.78421        -1.13148
H          7.13096        -9.95058        -0.17778
H          8.28486        -7.67354        -0.50075
H          9.30594        -5.84943        -0.93697
H         10.53731        -3.63802        -1.74226
