         638
 CSIRO Nanostructure Databank - Neutral Graphene Oxide Data Set
C         22.94623        69.99100         0.46894
C         22.95658        71.40234         0.60274
C         21.75048        72.15081         0.68561
C         22.99439        74.22921         0.87014
C         21.78361        73.53965         0.81366
C         25.37467        65.68741         0.07591
C         25.34621        67.10915         0.07621
C         24.15137        67.83512         0.24081
C         25.39667        69.95999         0.39194
C         24.14494        69.25422         0.35651
C         25.42813        71.37625         0.57247
C         24.20368        72.10111         0.66218
C         25.46890        74.20419         0.87609
C         24.23051        73.52856         0.80102
C         27.80369        61.31921        -0.30342
C         27.74235        62.77226        -0.57370
C         26.57581        63.55899        -0.13969
C         27.77036        65.71259        -0.68484
C         26.55607        64.94580        -0.18369
C         27.81673        67.13314        -0.17126
C         26.59734        67.83481         0.00883
C         27.85851        69.93485         0.29957
C         26.61412        69.23898         0.23966
C         27.89316        71.34171         0.54171
C         26.67109        72.06361         0.66465
C         27.92947        74.15735         1.02476
C         26.70612        73.50095         0.85054
C         30.19674        57.00725         0.33984
C         30.20919        58.49603         0.07083
C         29.02449        59.17231        -0.05675
C         30.28390        61.27583        -0.44128
C         28.97258        60.60463        -0.28078
C         30.33428        62.75910        -0.67321
C         29.05153        63.52112        -0.80318
C         30.26936        65.61301        -0.32583
C         29.08129        64.97097        -0.51386
C         30.30312        67.01719         0.21762
C         29.03187        67.79349        -0.00139
C         30.31970        69.90019         0.23339
C         29.07146        69.20522         0.20100
C         30.34077        71.29405         0.46130
C         29.14857        71.99756         0.67840
C         30.38510        74.15955         0.59082
C         29.21933        73.41838         1.18379
C         32.74797        52.80704        -0.16159
C         32.72254        54.16763        -0.29166
C         31.49936        54.94245        -0.14679
C         32.74441        57.06820         0.06749
C         31.50043        56.30156         0.02293
C         32.73826        58.48432         0.23382
C         31.47883        59.21340         0.15782
C         32.69102        61.37764         0.50951
C         31.48855        60.58779         0.06251
C         32.74586        62.81438         0.03973
C         31.55825        63.49627        -0.28691
C         32.76792        65.61118        -0.28788
C         31.54843        64.90493        -0.32717
C         32.75077        67.06467        -0.67819
C         31.53508        67.79500        -0.15722
C         32.76178        69.91567        -0.39053
C         31.53564        69.15381        -0.05118
C         32.78504        71.38396        -0.12656
C         31.65524        72.01830         0.65596
C         32.80297        74.18356         0.10630
C         31.58351        73.50756         0.36744
C         35.32058        48.46438        -0.67585
C         35.23624        49.89491        -0.66152
C         34.04237        50.55612        -0.47926
C         35.18658        52.78142        -0.67060
C         34.02820        51.99423        -0.00230
C         35.20409        54.22459        -0.13356
C         33.96720        54.97769        -0.60647
C         35.20541        57.08615        -0.04322
C         33.96613        56.39525        -0.08840
C         35.20676        58.50056         0.12194
C         33.96746        59.19918         0.22744
C         35.17900        61.34230         0.40125
C         33.99088        60.63857         0.32838
C         35.16007        62.82567         0.71776
C         33.94339        63.52969         0.17649
C         35.24861        65.64957        -0.02945
C         33.98133        64.92882        -0.05990
C         35.25720        67.07117        -0.23739
C         34.04172        67.79099        -0.39042
C         35.27196        69.91465        -0.40175
C         34.04799        69.18784        -0.41651
C         35.27586        71.37229        -0.29287
C         34.08741        72.07720        -0.08694
C         35.28915        74.20008         0.02191
C         34.06288        73.50911         0.03744
C         37.80711        44.22562        -0.41055
C         37.76886        45.62471        -0.37416
C         36.58428        46.35694        -0.56868
C         37.79290        48.53407        -0.52795
C         36.54539        47.78092        -0.59899
C         37.77966        49.91914        -0.63282
C         36.51360        50.64668        -0.99404
C         37.69335        52.79348        -0.42931
C         36.51688        52.08963        -0.55301
C         37.69892        54.25667        -0.33149
C         36.49336        54.97281        -0.33725
C         37.68538        57.09671        -0.01947
C         36.46081        56.38204        -0.16716
C         37.66123        58.50543         0.17377
C         36.45039        59.21570         0.18030
C         37.63906        61.39426         0.35722
C         36.44138        60.66183         0.32257
C         37.64767        62.81850         0.45124
C         36.45822        63.54052         0.42244
C         37.71575        65.67911         0.11030
C         36.46082        64.96320         0.19565
C         37.73401        67.07461        -0.13940
C         36.48941        67.79117        -0.28783
C         37.74928        69.92079        -0.82639
C         36.48166        69.19925        -0.44810
C         37.75296        71.39094        -0.46845
C         36.52019        72.07980        -0.27973
C         37.76040        74.19240        -0.09759
C         36.52258        73.50583        -0.10498
C         40.29932        39.91626        -0.20033
C         40.20373        41.31886         0.03894
C         39.02551        42.04837        -0.11259
C         40.22542        44.19048        -0.05657
C         39.01522        43.48485        -0.14643
C         40.26694        45.60731        -0.55663
C         39.04349        46.36044         0.00211
C         40.24708        48.48529        -0.50541
C         39.05907        47.82557        -0.38401
C         40.30622        49.98053        -0.74443
C         38.98453        50.68469        -0.57170
C         40.19103        52.82625        -0.26372
C         38.96357        52.07609        -0.45182
C         40.16267        54.22053        -0.18078
C         38.93748        54.96508        -0.22879
C         40.16325        57.12829        -0.00472
C         38.93242        56.38551        -0.06884
C         40.18918        58.50601         0.14971
C         38.93141        59.24731         0.53530
C         40.18704        61.41366         0.20957
C         38.90349        60.66118        -0.03895
C         40.19655        62.80297         0.39368
C         38.93336        63.54480         0.78352
C         40.15692        65.68690         0.35559
C         38.95177        64.99511         0.34356
C         40.19666        67.09737         0.09872
C         38.97449        67.79102        -0.14678
C         40.20117        69.90397        -0.38229
C         39.00399        69.20418        -0.38456
C         40.22437        71.35094        -0.84018
C         38.95715        72.08103        -0.46120
C         40.22426        74.19450        -0.26155
C         38.98189        73.50657        -0.26714
C         42.64452        35.62811        -0.40599
C         42.68603        37.03125        -0.10285
C         41.54829        37.80779        -0.30536
C         42.73655        39.92744         0.25404
C         41.50112        39.21691        -0.06745
C         42.72719        41.33065         0.40726
C         41.42708        42.00995         0.47931
C         42.74301        44.22486         0.30922
C         41.43701        43.55265         0.42103
C         42.72783        45.64947         0.04808
C         41.54969        46.31780        -0.23962
C         42.74596        48.52729        -0.05415
C         41.57585        47.76865        -0.63869
C         42.69846        49.89873         0.08331
C         41.36949        50.61961         0.15664
C         42.64968        52.78941         0.03349
C         41.43784        52.11721        -0.06969
C         42.68938        54.24558         0.02085
C         41.39023        54.96339         0.28974
C         42.68346        57.11993         0.25816
C         41.44828        56.38104        -0.27874
C         42.65613        58.58800        -0.06854
C         41.41501        59.25715         0.06494
C         42.64757        61.39252         0.13823
C         41.40666        60.69265         0.11070
C         42.64336        62.80808         0.29083
C         41.42022        63.50227         0.44427
C         42.69120        65.67433         0.47053
C         41.40657        64.96924         0.81781
C         42.68521        67.10047         0.25902
C         41.43316        67.81092         0.07211
C         42.65983        69.94439        -0.31258
C         41.44062        69.21741        -0.17470
C         42.69939        71.37442        -0.38312
C         41.48635        72.08666        -0.46371
C         42.69426        74.20835        -0.19044
C         41.46900        73.50957        -0.32341
C         45.17624        33.01088        -1.15832
C         43.88101        33.54259        -1.01819
C         45.44037        35.96384        -0.91880
C         43.60025        34.61811        -0.11455
C         45.26206        37.11407         0.04341
C         43.93655        37.74351         0.32102
C         45.16388        39.93048         0.61730
C         43.95066        39.22630         0.41499
C         45.15692        41.33930         0.65027
C         43.93710        42.05613         0.55583
C         45.19871        44.22417         0.42244
C         43.93310        43.51796         0.47836
C         45.20037        45.64953         0.25159
C         43.98632        46.36644         0.09557
C         45.20786        48.47559         0.23066
C         43.99451        47.79013         0.07858
C         45.19969        49.93589         0.58165
C         43.90559        50.66130         0.27164
C         45.14240        52.81957         0.25636
C         43.88164        52.04122         0.19288
C         45.11740        54.19796        -0.30999
C         43.86224        54.95138        -0.13425
C         45.09864        57.07917        -0.46536
C         43.94687        56.40560        -0.16956
C         45.10851        58.58301        -0.66317
C         43.86184        59.28476        -0.17844
C         45.14150        61.37834         0.11469
C         43.88705        60.69230        -0.00511
C         45.12908        62.79333         0.32240
C         43.90095        63.50360         0.34248
C         45.16263        65.63152         0.52102
C         43.87573        64.93723         0.42017
C         45.15364        67.14855         0.38867
C         43.88701        67.78919         0.07385
C         45.23092        69.95504        -0.32975
C         43.90732        69.18802        -0.36674
C         45.19158        71.42017        -0.16251
C         43.95199        72.09296        -0.25417
C         45.16282        74.23507        -0.04601
C         43.93898        73.53207        -0.16927
C         46.39213        33.62722        -0.82520
C         47.70499        35.67840        -0.16957
C         46.54709        35.02444        -0.57072
C         47.72891        37.11319         0.08452
C         46.51769        37.84653         0.17499
C         47.71193        39.92698         0.52734
C         46.46341        39.17479         0.88403
C         47.63236        41.38203         0.19333
C         46.46021        42.07158         0.90297
C         47.65893        44.22747         0.41137
C         46.42491        43.54076         0.52931
C         47.67847        45.64822         0.28134
C         46.44122        46.35434         0.23091
C         47.69780        48.45906         0.02809
C         46.44585        47.77777         0.18689
C         47.68073        49.91452        -0.22904
C         46.39879        50.64451        -0.01344
C         47.69735        52.82404        -0.13149
C         46.44560        52.11318         0.19519
C         47.68842        54.21101        -0.31928
C         46.40125        54.89511        -0.61451
C         47.62463        57.10200        -0.33754
C         46.39742        56.39747        -0.88892
C         47.58648        58.47202        -0.07949
C         46.38245        59.23998        -0.16625
C         47.64575        61.31278         0.27136
C         46.37577        60.62847         0.07193
C         47.65255        62.76730         0.69426
C         46.38864        63.51624         0.35806
C         47.64170        65.65361        -0.10698
C         46.41373        64.88328         0.33080
C         47.67784        67.07108         0.51508
C         46.42641        67.85735         0.20837
C         47.67304        69.98024         0.22448
C         46.45876        69.22875         0.06184
C         47.65639        71.42261         0.20961
C         46.40538        72.12292         0.03897
C         47.64100        74.25596         0.14842
C         46.40719        73.56300         0.05536
C         48.94146        37.80156         0.31187
C         50.15423        39.97194         0.36796
C         48.93675        39.23318         0.40790
C         50.17232        41.39155         0.44310
C         48.93520        42.11405         0.41324
C         50.15750        44.24292         0.43961
C         48.92158        43.51372         0.43662
C         50.16364        45.65217         0.30505
C         48.91438        46.35784         0.19425
C         50.17849        48.47323        -0.42277
C         48.90393        47.76726        -0.00226
C         50.19078        49.96045        -0.11596
C         48.94169        50.68241        -0.10099
C         50.14176        52.85292         0.34077
C         48.90949        52.06800        -0.02314
C         50.18805        54.18803        -0.41632
C         48.89209        54.96865        -0.33204
C         50.12153        57.10292        -0.14972
C         48.86687        56.37158        -0.28028
C         50.12640        58.46285         0.10984
C         48.82161        59.12910         0.49619
C         50.07316        61.34171         0.79063
C         48.82295        60.62409         0.32957
C         50.10237        62.78631         0.35283
C         48.93226        63.48559         0.30463
C         50.15802        65.61345         0.16575
C         48.95303        64.92283         0.11937
C         50.18151        67.08248         0.00689
C         48.89000        67.82913         0.04018
C         50.13233        69.94011         0.33126
C         48.90681        69.28232         0.27165
C         50.14010        71.40158         0.68189
C         48.85600        72.12891         0.35886
C         50.11251        74.26921         0.32335
C         48.88881        73.57262         0.28064
C         51.38579        42.11212         0.54699
C         52.61501        44.25752         0.62243
C         51.40486        43.52816         0.54141
C         52.63879        45.66966         0.51907
C         51.40149        46.37151         0.30505
C         52.64465        48.46435         0.07109
C         51.43360        47.77559         0.06605
C         52.67390        49.90614        -0.26614
C         51.39211        50.64516        -0.09821
C         52.59360        52.77348         0.11779
C         51.42342        52.08007         0.10603
C         52.60565        54.24347         0.48897
C         51.39731        54.99205        -0.03724
C         52.64096        57.11437        -0.13456
C         51.37159        56.35129        -0.11742
C         52.62645        58.54277         0.17596
C         51.36509        59.21342         0.27341
C         52.57626        61.31987         0.58319
C         51.35028        60.60281         0.47699
C         52.58808        62.75112         0.61053
C         51.41074        63.46593         0.03188
C         52.61980        65.62742         0.54737
C         51.42034        64.94197         0.33628
C         52.64876        67.09110         0.42700
C         51.41628        67.82680         0.24408
C         52.61262        69.98555         0.22467
C         51.37102        69.22756         0.30028
C         52.61516        71.34407         0.11956
C         51.32811        72.12877         0.04828
C         52.67355        74.24954         0.01764
C         51.43617        73.57748         0.57483
C         53.85375        46.40332         0.57179
C         55.10604        48.53694         0.41929
C         53.88464        47.79658         0.36062
C         55.23491        49.91466         0.12576
C         53.98690        50.64357        -0.29162
C         54.84279        52.81834         0.84540
C         53.93942        52.16887        -0.22020
C         55.10271        54.26107         0.51705
C         53.93494        54.92068         0.23413
C         55.15487        57.10191         0.41615
C         53.95106        56.36963        -0.00908
C         55.09983        58.48462         0.52567
C         53.85026        59.20394         0.40383
C         54.95282        61.31376         1.13945
C         53.81652        60.61622         0.64281
C         54.75206        62.62613         1.56866
C         53.71077        63.45592         1.05326
C         55.08023        65.61265         0.92350
C         53.85172        64.91521         0.88178
C         55.14681        67.02876         0.34749
C         53.84248        67.77390         0.38340
C         55.12476        69.97698         0.20460
C         53.86254        69.20464        -0.09984
C         55.12109        71.36697        -0.04789
C         53.83002        72.04554        -0.44310
C         55.09036        74.21173        -0.38050
C         53.83560        73.54845        -0.23057
C         56.48195        50.54158         0.32499
C         57.58291        52.73391         0.83445
C         56.88165        51.90444        -0.02823
C         57.65033        54.20468         0.67194
C         56.38958        54.94285         0.52219
C         57.63278        57.10407         0.62550
C         56.37244        56.33741         0.56364
C         57.55140        58.47993         1.26155
C         56.39076        59.27370         0.62109
C         57.60147        61.39606         1.29613
C         56.26372        60.63926         1.27925
C         57.61247        62.86628         1.12749
C         56.59419        63.67171         1.58229
C         57.58959        65.74939         0.95512
C         56.38669        65.04019         1.15814
C         57.59880        67.17844         0.84752
C         56.27031        67.87088         0.97935
C         57.55586        69.99369         0.38870
C         56.31892        69.30196         0.48419
C         57.56163        71.38658         0.07738
C         56.32686        72.08195        -0.08477
C         57.55505        74.17455        -0.49225
C         56.32130        73.51602        -0.34107
C         58.83920        54.88383         0.81141
C         60.11891        57.12080         1.12757
C         58.93483        56.34911         0.70905
C         60.11067        58.51250         1.11084
C         58.84479        59.25720         1.07238
C         60.09676        61.27327         0.40006
C         58.83143        60.61989         0.95421
C         60.08705        62.80621         0.38356
C         58.77494        63.56886         0.55250
C         60.04186        65.68658         0.76457
C         58.82758        65.02229         0.81270
C         60.06956        67.16051         1.09368
C         58.78562        67.87478         0.77114
C         60.02769        69.94763         0.25347
C         58.80718        69.29249         0.51722
C         60.02611        71.34664        -0.07606
C         58.80103        72.06536        -0.12350
C         60.01142        74.12299        -0.70533
C         58.79327        73.47457        -0.43699
C         61.31248        59.27692         1.26476
C         62.51144        61.41699         1.10454
C         61.34059        60.66158         1.01631
C         62.55609        62.84257         0.90965
C         61.31677        63.56587         0.64698
C         62.51739        65.72784         0.83705
C         61.28507        64.96390         0.72659
C         62.52328        67.09867         0.65882
C         61.29840        67.85062         0.57953
C         62.51646        69.85872        -0.13553
C         61.27364        69.19924         0.25214
C         62.46635        71.27389        -0.52297
C         61.24554        72.00718        -0.42119
C         62.44421        74.04711        -1.11366
C         61.23749        73.40839        -0.74280
C         63.74381        63.53260         1.04817
C         64.89768        65.61661         0.19735
C         63.83385        65.02964         1.10189
C         64.92561        66.97004        -0.03420
C         63.83930        67.83714         0.59743
C         65.01255        69.89808        -0.34084
C         63.71308        69.19197        -0.04936
C         64.79918        71.04484        -1.33667
C         63.62146        71.90747        -0.97977
C         64.86025        73.93012        -1.65761
C         63.64365        73.31427        -1.25985
C         66.00559        67.59902        -0.72468
C         67.21797        69.60731        -1.46312
C         66.10177        68.98773        -0.88643
C         67.27121        71.03155        -1.67549
C         66.08289        71.79411        -1.55637
C         67.30850        73.83000        -2.10465
C         66.07783        73.19584        -1.77347
C         68.47285        71.69690        -2.02543
C         68.47561        73.07991        -2.22953
O         28.22712        63.14385        -1.94349
O         49.46234        67.47785        -1.26156
O         58.41591        56.95618        -0.58326
O         45.90319        52.59957         1.50383
O         55.65275        63.17043         2.48461
O         59.29004        63.24525        -0.78159
O         54.90969        52.35031         1.97688
O         56.96980        60.86353         2.52924
O         30.55761        61.83875        -1.79161
O         44.94491        36.03120        -2.03476
O         45.16333        66.48980         1.73704
O         41.26131        42.81299         1.68192
O         44.61752        37.04027         1.44266
O         47.65368        62.69599         2.12826
O         45.65140        54.19949        -1.68974
O         44.69194        69.46545        -1.59730
O         53.44463        56.78125        -1.33354
O         32.48792        70.88669        -1.47427
O         46.78889        50.28048        -1.36354
O         53.38615        50.18181        -1.55139
O         50.28625        71.41994         2.14902
H         49.52833        70.92702         2.52970
O         38.95078        59.37377         1.98400
H         39.13515        58.49052         2.36653
O         30.37811        66.82612         1.68300
H         30.45321        67.71528         2.09132
O         46.50353        56.54217        -2.34388
H         46.01140        55.77529        -2.72630
O         35.01569        62.89819         2.18089
H         34.13280        62.50392         2.39356
O         45.08365        58.80507        -2.11504
H         45.71082        58.14425        -2.51002
O         32.51825        61.50865         1.98667
H         32.56244        60.60371         2.36534
O         41.58750        56.24136        -1.70995
H         41.60287        57.13705        -2.10786
O         57.28590        58.23092         2.65491
H         57.21422        59.11093         3.09903
O         29.51815        73.29627         2.65812
H         28.70995        72.93874         3.08595
O         32.61380        67.06339        -2.14356
H         32.56022        67.99874        -2.43680
O         29.09452        56.37522        -0.31478
H         29.16925        56.54244        -1.27634
O         64.23555        65.34518         2.47908
H         64.35780        66.32814         2.52852
O         48.73459        58.92384         1.95297
H         49.23338        59.67539         2.37366
O         50.20722        48.36473        -1.88232
H         51.01236        48.82771        -2.19950
O         54.22802        52.68981        -1.53946
H         53.63648        52.20259        -2.15707
O         53.71035        71.87569        -1.90481
H         53.77280        70.89773        -2.07381
O         41.84595        47.74899        -2.09988
H         41.69179        48.67910        -2.41537
O         34.03077        55.17347        -2.05944
H         33.18222        55.57740        -2.33937
O         37.78663        69.89384        -2.30884
H         37.72279        68.95537        -2.58862
O         40.73827        50.21375        -2.12682
H         39.94078        50.18481        -2.69814
O         64.45672        70.39310        -2.60303
H         64.35083        71.09498        -3.27891
O         39.16163        46.30926         1.44820
H         38.39509        46.78193         1.83420
O         64.27154        68.09168         1.98337
H         64.87611        68.87420         1.95288
O         50.00699        53.16714         1.74631
H         50.08930        52.34039         2.26374
O         46.49306        38.90886         2.33156
H         45.81159        38.21371         2.49233
O         47.45046        65.79093        -1.54336
H         48.18302        66.36977        -1.87690
O         45.36553        49.98808         2.03489
H         45.48650        50.94308         2.26907
O         51.56988        63.38102        -1.43659
H         50.79937        63.83778        -1.83812
O         47.33382        41.46909        -1.24321
H         48.08065        41.06158        -1.73097
O         40.22882        71.29766        -2.30941
H         39.38037        70.86125        -2.57898
O         56.65236        52.35607        -1.28383
H         56.09493        51.72999        -1.78855
O         55.50243        66.89173        -1.07447
H         54.93514        66.18856        -1.45787
O         52.46405        54.29563         1.95208
H         53.17448        53.74020         2.34472
O         51.01764        72.23768        -1.36552
H         51.87454        72.25551        -1.86281
O         56.76517        59.56957        -0.75326
H         57.02077        58.72847        -1.19277
O         55.96229        67.92976         2.40148
H         56.73514        68.31507         2.86553
O         40.89109        50.43873         1.52524
H         41.63453        50.63026         2.13482
O         60.17012        60.85439        -0.99252
H         59.58657        61.46378        -1.50112
O         31.99314        71.88217         2.06595
H         31.28870        72.36768         2.56417
O         41.20967        55.04089         1.73126
H         41.25296        54.12876         2.08621
O         41.32861        65.00525         2.30136
H         42.17899        64.65802         2.64864
O         35.07858        54.21469         1.32585
H         35.94322        53.94047         1.69946
O         47.82641        66.95773         1.94984
H         46.96645        66.61657         2.30195
O         65.49536        70.42035         0.93342
H         66.37619        70.82403         0.77434
O         50.36162        53.82613        -1.82214
H         50.44179        54.65347        -2.34237
O         49.96275        61.36659         2.25967
H         49.11291        61.89716         2.44197
O         51.65719        73.64246         2.01532
H         51.11399        72.93260         2.43929
O         38.94152        63.57385         2.24615
H         39.74188        64.08979         2.52254
O         42.64609        57.08140         1.70983
H         43.39698        57.61290         2.04706
O         46.74324        42.00418         2.32406
H         45.93207        42.24967         2.81496
O         40.15289        45.56641        -2.01004
H         40.71321        46.29819        -2.37398
O         44.30073        34.57411         1.02980
H         44.17479        35.40334         1.55913
O         53.87709        69.10109        -1.58272
H         54.59588        68.45366        -1.79679
O         38.81579        60.49585        -1.49005
H         38.83852        61.38494        -1.90170
O         36.55089        50.69036        -2.46727
H         35.86366        51.35408        -2.73202
O         27.59517        65.83320        -2.13191
H         27.66890        64.91525        -2.49324
O         34.87009        52.73595        -2.09617
H         34.73511        53.65417        -2.43827
O         60.16904        67.23032         2.57064
H         61.05834        66.89231         2.81500
O         34.21433        51.83133         1.43115
H         34.12941        52.72476         1.84131
H         23.00185        75.32381         0.97269
H         25.47821        75.29820         0.99372
H         27.93369        75.24623         1.18473
H         30.29810        75.24282         0.41500
H         32.79495        75.28326         0.05035
H         35.29852        75.29651         0.11026
H         37.76924        75.28501         0.02994
H         40.22550        75.28776        -0.13837
H         42.67722        75.30404        -0.09286
H         45.14372        75.33482        -0.01745
H         47.63717        75.35588         0.11500
H         50.09179        75.37063         0.28887
H         52.72823        75.34910         0.08951
H         55.10665        75.31240        -0.42197
H         57.56672        75.25505        -0.70108
H         60.01050        75.19623        -0.94713
H         62.43848        75.12532        -1.33085
H         64.87124        75.01252        -1.85277
H         67.32784        74.91649        -2.26975
H         21.98196        69.46188         0.44069
H         20.78654        71.62384         0.64304
H         20.83944        74.09966         0.87180
H         24.43987        65.14080         0.27579
H         23.19395        67.29464         0.28391
H         26.85113        60.79700        -0.12089
H         25.68400        63.01436         0.20840
H         30.01809        56.87500         1.44710
H         28.07896        58.60994        -0.02243
H         31.79749        52.28745         0.04899
H         30.53984        54.40468        -0.09143
H         34.38754        47.88121        -0.61728
H         33.11753        49.96693        -0.35871
H         36.87790        43.66709        -0.60422
H         35.64253        45.80793        -0.72845
H         39.39169        39.36755        -0.49349
H         38.09334        41.51573        -0.35399
H         41.88089        35.34186        -1.14818
H         40.61592        37.30883        -0.61000
H         45.25296        32.03018        -1.65931
H         43.08773        33.18923        -1.69358
H         47.30545        33.01208        -0.86231
H         48.63065        35.10779         0.00466
H         49.89969        37.26406         0.27837
H         51.10908        39.42649         0.33673
H         52.33578        41.56054         0.60726
H         53.56327        43.71141         0.73781
H         54.79547        45.86408         0.75310
H         56.01811        47.98524         0.69457
H         57.20929        49.97482         0.93006
H         57.90730        52.31891         1.80096
H         59.76102        54.32254         1.02634
H         61.06591        56.58563         1.30038
H         62.24430        58.75857         1.54029
H         63.44505        60.91464         1.40334
H         64.66485        62.97062         1.26731
H         65.69954        64.97009        -0.19144
H         66.81021        66.96100        -1.12369
H         68.08846        68.99748        -1.74935
H         69.40264        71.12031        -2.12982
H         69.41600        73.58362        -2.49479
