         271
 CSIRO Nanostructure Databank - Neutral Graphene Oxide Data Set
C        -10.89741         0.60540        -1.24792
C         -9.69351         1.44308        -0.82781
C         -8.40927         0.62026        -1.12781
C         -7.16757         1.36632        -0.62241
C         -6.40215         0.84442         0.59247
C         -5.07340         1.58363         0.83803
C         -3.77987         0.83138         0.98521
C         -2.45996         1.53050         1.00072
C         -1.27432         0.83091         1.10943
C          0.03411         1.50957         1.23354
C          1.20574         0.80748         1.45762
C          2.50912         1.51420         1.60120
C          3.82196         0.78913         1.48857
C          5.01786         1.51244         0.90874
C          6.25735         0.76572         0.52653
C          7.47904         1.50978         0.11674
C          8.56460         0.73817        -0.64963
C          9.90983         1.41645        -0.36051
C         11.15006         0.64127        -0.58491
C         -9.55083         2.80859        -1.49431
C         -8.37210         3.47135        -1.49546
C         -7.15837         2.82424        -0.90614
C         -6.15163         3.70795        -0.23191
C         -5.05474         3.07094         0.55769
C         -3.73317         3.77808         0.68133
C         -2.47853         3.00781         0.99790
C         -1.17717         3.66634         0.67029
C          0.07048         2.97548         1.08229
C          1.23305         3.69390         1.16267
C          2.51262         2.94565         1.17057
C          3.79128         3.67780         0.93664
C          5.11255         2.99584         1.09535
C          6.36498         3.68868         0.66777
C          7.48864         2.87798         0.10729
C          8.62353         3.63237        -0.45149
C          9.92361         2.91360        -0.34458
C         -8.23151         4.88874        -2.05886
C         -7.14958         5.72821        -1.38021
C         -5.86605         4.94296        -1.10622
C         -4.73067         5.80685        -0.56661
C         -3.61464         5.16304         0.15619
C         -2.46443         5.88147         0.37668
C         -1.18402         5.14480         0.39957
C          0.10153         5.91573         0.47374
C          1.32833         5.15714         0.85085
C          2.56912         5.87503         1.38123
C          3.76789         5.17102         0.76688
C          5.02262         5.86292         0.38262
C          6.38910         5.19018         0.37869
C          7.08476         5.51556        -0.96661
C          8.47308         4.89800        -0.92240
C         -7.23164         7.07180        -1.29003
C         -6.19253         7.97175        -0.64597
C         -4.84002         7.29166        -0.52022
C         -3.79121         8.07177         0.22539
C         -2.52227         7.35258         0.56904
C         -1.25439         8.12378         0.96094
C          0.06766         7.43758         0.44372
C          1.26086         8.14067         1.21400
C          2.63843         7.39467         1.16375
C          3.93728         8.13823         0.68131
C          5.03375         7.33146         0.20001
C          5.97697         7.81471        -0.76395
C          7.00090         7.00734        -1.23777
C         -5.91618         9.30697        -1.31354
C         -4.82831        10.02238        -0.98196
C         -3.79593         9.59577         0.05368
C         -2.38215        10.11725        -0.35539
C         -1.19590         9.54584         0.39776
C          0.00334        10.18933         0.35882
C          1.30353         9.56018         0.64784
C          2.44073        10.14268         0.18755
C          3.86310         9.62882         0.35090
C          4.75968         9.96895        -0.82053
C          5.76615         9.18306        -1.25128
C        -10.91043        -0.73726        -1.33191
C         -9.66084        -1.61327        -1.24565
C         -8.60098        -0.76918        -0.54652
C         -7.52527        -1.42581         0.28512
C         -6.26477        -0.67348         0.53995
C         -5.08736        -1.32622         0.71918
C         -3.75171        -0.61476         0.53232
C         -2.51630        -1.31864         1.05415
C         -1.34341        -0.63256         1.21864
C         -0.07348        -1.39773         1.41502
C          1.23773        -0.68232         1.47693
C          2.49130        -1.36548         0.95257
C          3.79817        -0.64655         1.05391
C          5.09058        -1.45270         1.13490
C          6.34733        -0.69117         0.77500
C          7.51338        -1.35811         0.53814
C          8.56748        -0.78643        -0.38257
C          9.92156        -1.45522        -0.23933
C         11.14589        -0.70081        -0.42460
C         -9.81756        -2.97403        -0.60061
C         -8.72520        -3.62658        -0.01766
C         -7.55876        -2.88840         0.31899
C         -6.35903        -3.56666         0.80358
C         -5.07126        -2.81225         0.65926
C         -3.79303        -3.53157         0.87701
C         -2.52712        -2.80683         1.33916
C         -1.36126        -3.49273         0.57118
C         -0.05013        -2.73269         0.72606
C          1.21451        -3.46452         0.44965
C          2.52919        -2.85746         0.78359
C          3.68989        -3.50818         0.49831
C          4.94662        -2.72141         0.30622
C          6.14929        -3.34232        -0.33847
C          7.48765        -2.64095        -0.27124
C          8.68890        -3.54603        -0.28421
C          9.94286        -2.82084        -0.13437
C         -8.71271        -5.08783         0.16290
C         -7.60991        -5.79308         0.54110
C         -6.37649        -5.06769         0.93655
C         -5.05930        -5.81115         1.00253
C         -3.79711        -5.02074         1.09033
C         -2.55073        -5.73613         0.56479
C         -1.25022        -5.00649         0.95748
C         -0.07120        -5.70913         0.29833
C          1.14536        -4.90460         0.03091
C          2.43061        -5.63135        -0.12902
C          3.74241        -5.01084         0.29718
C          4.80419        -5.45660        -0.73958
C          6.18397        -4.87033        -0.37809
C          7.30753        -5.38474        -1.29512
C          8.61796        -4.81658        -0.77278
C         -7.59948        -7.29813         0.78745
C         -6.29119        -7.95914         0.31926
C         -5.00048        -7.21313         0.41424
C         -3.64594        -7.99297         0.23887
C         -2.53727        -7.20970         1.02842
C         -1.12529        -7.78941         0.96177
C         -0.06549        -7.07230         0.20992
C          1.16398        -7.87607        -0.10845
C          2.45167        -7.12709        -0.15892
C          3.67864        -7.71937        -0.74244
C          4.83071        -6.97796        -0.86513
C          6.08367        -7.61080        -1.25776
C          7.25077        -6.89436        -1.39159
C         -6.17824        -9.44630         0.28887
C         -5.02170       -10.12332         0.39868
C         -3.63736        -9.52801         0.59602
C         -2.61084       -10.20928        -0.35315
C         -1.28741       -10.11877        -0.32401
C          0.03838       -10.19928        -0.28489
C          1.04784        -9.19775        -0.88477
C          2.42865        -9.83072        -1.04732
C          3.62057        -9.14310        -1.04418
C          4.89226        -9.77211        -1.36958
C          6.04405        -9.05466        -1.45829
O          0.59186        -8.80546        -2.19811
H          0.41250        -9.61289        -2.72215
O         -8.74844        -0.80921         0.88647
O          1.09917         8.01580         2.58419
O         -4.58139         1.17453         2.15930
O         -1.71741        -3.36148        -0.81872
H         -0.87549        -3.18801        -1.31781
O          8.31854         0.93115        -2.05770
H          7.64395         0.27119        -2.33465
O         -6.39268         1.85518        -1.74632
O         -4.41228        -5.55048         2.28496
O         -3.21470         3.66859         2.06722
O          5.19151         1.08364        -0.47348
O          4.04093         5.43698        -0.64063
O          3.09549         3.04936        -0.18847
O         -6.56625        -4.21562         2.11556
O          7.84694        -1.66413        -1.43907
O         -3.36842        -8.05164        -1.15843
H         -3.57732        -7.18576        -1.57458
O          4.02001        -5.59773         1.58370
H          4.90582        -5.28268         1.88241
O          0.65291        -1.30989         2.67505
O         -4.16668        10.17017         1.32256
H         -3.83609         9.54826         2.01574
O          7.17349         5.81548         1.41036
H          6.99260         5.34341         2.25346
O          4.40170        -4.94743        -2.01621
H          5.17769        -4.99108        -2.62416
O         -9.26348        -1.93624        -2.60344
H         -9.00794        -1.08324        -3.03633
O          1.76543        -5.08511        -1.29204
O          6.05462         3.44674         2.10094
O         -2.41859        -2.92055         2.75972
H         -2.00021        -3.78669         2.99346
O         -6.16425         3.82484         1.19801
O         -7.23532         1.15879         1.72703
H         -6.66106         1.16069         2.52499
O         -2.17155         9.76597        -1.73814
H         -1.45887         9.09079        -1.79149
O         -2.63748        -5.73186        -0.86556
H         -2.56345        -4.79359        -1.18241
O          4.42683        10.33889         1.48648
H          4.02940         9.93796         2.29259
O         -4.26866         6.67008        -1.68804
O          3.08825        -0.72377        -0.21787
O          9.99729         2.15862         0.90027
O         -6.66980         8.24291         0.69958
H         -6.07745         8.91750         1.10238
O          6.35377         4.89672        -2.04977
H          6.46987         3.92408        -2.00636
O          3.32812         1.16797         2.79183
O         -5.47719         4.40719        -2.34193
O          1.05340         5.45117        -0.55053
O         -3.59694         7.64425         1.58596
O         -0.81164        -8.68229         1.74727
O          2.61240         5.65688         2.80252
H          2.13831         6.42391         3.21506
O          3.60851         7.90903         2.08369
O          5.32798        -1.84160         2.55616
O          4.08587        -2.37820         3.09113
H          3.93907        -1.81946         3.89392
O          0.59315        -2.59123        -0.58430
O          5.20188        -2.60384        -1.13880
O         -1.13770         4.15907        -0.70363
O         -4.23960        -3.24630        -0.49451
O          0.13353         7.79497        -0.95478
H          0.57077         7.05330        -1.43645
O         -1.34231         8.19504         2.38096
H         -0.46217         8.46136         2.76682
O         -3.57496        -0.55340        -0.91403
H         -3.53037        -1.48607        -1.23581
O         -9.48911         5.55426        -2.04167
H         -9.75698         5.68858        -1.10938
O         -5.75074        -7.25502        -0.84653
O          2.04339        -7.86082         1.05472
O         -1.04825        -5.11128         2.38622
H         -1.48459        -5.94192         2.71000
O         -8.31036         0.50617        -2.55814
H         -7.53819         1.06923        -2.83279
O          6.55204        -5.26581         0.97071
H          6.75210        -6.22724         0.95857
O         -9.80882         1.70715         0.57936
H         -9.46910         0.93280         1.08795
O         -2.81317        -7.24541         2.44327
H         -3.02051        -8.18624         2.68184
O         -3.26200        -9.78775         1.95993
H         -2.27242        -9.82642         2.00385
O          7.10121        -4.85648        -2.63794
H          7.25892        -3.88690        -2.61672
O         -7.78390        -7.51992         2.19188
H         -7.25166        -6.86641         2.69258
H         12.08546        -1.26986        -0.48798
H         12.09292         1.18718        -0.73383
H         10.85003         3.46238        -0.61538
H          9.33797         5.45046        -1.32064
H          7.70898         7.43145        -1.96773
H          6.42543         9.53554        -2.05896
H          4.63661        10.97204        -1.25633
H          2.36294        11.14818        -0.25929
H          0.04466        11.20804        -0.06248
H         -2.38463        11.23741        -0.27352
H         -4.65863        10.99854        -1.46263
H         -6.62545         9.69757        -2.05999
H         -8.17410         7.55565        -1.59966
H         -7.92712         4.78571        -3.13622
H        -10.44998         3.30760        -1.89036
H        -11.84683         1.14863        -1.38590
H        -11.85127        -1.25035        -1.58997
H        -10.71201        -3.56160        -0.86109
H         -9.63762        -5.62847        -0.09155
H         -8.45905        -7.78256         0.25834
H         -7.11972       -10.01153         0.19792
H         -5.06557       -11.22455         0.40026
H         -3.05833       -10.75369        -1.20641
H          0.48201       -11.02418         0.30460
H          2.45268       -10.90239        -1.30747
H          4.90494       -10.85580        -1.56005
H          6.98525        -9.56086        -1.72051
H          8.17352        -7.42310        -1.67799
H          9.54470        -5.39546        -0.91388
H         10.89466        -3.37169        -0.10814
