         349
 CSIRO Nanostructure Databank - Neutral Graphene Oxide Data Set
C          1.26683         3.73391         1.09667
C          0.07859         3.94850         0.43121
C          1.06704         5.84367        -0.72896
C         -0.01231         4.99180        -0.51182
C          0.97044         8.10592        -1.06742
C         -0.25926         8.81939        -0.87217
C          0.96707        10.64188         0.21256
C         -0.24836        10.04918        -0.28098
C          1.00070        11.98297         0.60216
C         -0.16108        12.81885         0.47328
C          1.11751        14.91337         0.52033
C         -0.10867        14.18742         0.40616
C          1.23138        16.27958         0.24329
C          0.06556        17.03201        -0.18546
C          1.47064        18.92597        -0.85258
C          0.15574        18.28194        -0.68770
C          1.58060        20.35692        -1.33466
C          0.34652        21.13301        -1.56903
C          1.42504        23.22580        -0.87905
C          0.27726        22.46365        -1.32296
C          1.25846        24.68356        -0.44701
C          0.08970        25.45892        -1.03072
C          1.30053        27.59313        -0.73687
C          0.12288        26.80669        -1.11567
C          1.26311        29.04390        -0.67087
C          3.66997         4.13727         1.30106
C          2.41265         4.53451         0.80975
C          3.50985         6.44559        -0.33306
C          2.31935         5.67187        -0.06402
C          3.44058         7.82019        -1.03211
C          2.17872         8.57075        -0.63020
C          3.53620        10.40278         0.53897
C          2.19344         9.79983         0.18952
C          3.56328        11.85886         0.96361
C          2.26123        12.63561         1.03605
C          3.58539        14.87228         1.17102
C          2.27981        14.15511         1.04701
C          3.68834        16.31476         0.83151
C          2.48943        17.00009         0.36271
C          3.75982        19.11775         0.18391
C          2.59168        18.31882        -0.09938
C          3.85146        20.45229        -0.15405
C          2.87361        21.13603        -1.10851
C          3.84808        23.32314        -0.40249
C          2.64540        22.59359        -0.73163
C          3.84244        24.78255        -0.61490
C          2.52776        25.47336        -0.70319
C          3.68987        27.65109         0.04168
C          2.48022        26.93941        -0.49950
C          3.67883        29.13926        -0.22051
C          2.39743        29.77060        -0.45140
C          6.08185         4.06347         1.04712
C          4.84715         4.70392         0.77886
C          5.98108         6.37682        -0.74859
C          4.75512         5.90249        -0.02189
C          5.98926         7.87005        -1.25969
C          4.73691         8.58799        -0.73240
C          6.05523        10.42564         0.38061
C          4.76980         9.76353        -0.03510
C          6.09324        11.83338         0.90944
C          4.83669        12.65980         0.67699
C          6.14481        14.82875         1.34275
C          4.85228        14.06956         1.29275
C          6.15509        16.32068         1.19813
C          4.87297        17.00144         1.01994
C          6.08514        19.23445         1.21049
C          4.74874        18.51112         1.16444
C          6.11798        20.65767         0.81524
C          5.02022        21.24447         0.23417
C          6.23892        23.43695         0.16527
C          5.01016        22.68248        -0.00943
C          6.24798        24.84866        -0.13119
C          5.07021        25.56034        -0.35284
C          6.17227        27.75395        -0.12615
C          5.01840        26.99069        -0.26675
C          6.12925        29.19677         0.04720
C          4.84330        29.85240        -0.10366
C          8.47767         3.78501         0.66145
C          7.26947         4.38731         0.35183
C          8.54566         5.91542        -1.12525
C          7.20846         5.46203        -0.68309
C          8.48091         8.08656        -1.22580
C          7.27738         8.58909        -0.86812
C          8.59322        10.60438        -0.08597
C          7.24382        10.03243        -0.46336
C          8.59082        11.95685         0.32126
C          7.40705        12.58561         0.91925
C          8.66408        14.84403         0.78660
C          7.43523        14.07722         1.12396
C          8.70246        16.30321         1.20789
C          7.35254        16.99852         1.15325
C          8.63408        19.25523         0.93602
C          7.39050        18.48953         1.23524
C          8.63685        20.64385         0.93855
C          7.35937        21.42976         1.19468
C          8.65954        23.50746         0.64295
C          7.41054        22.80009         0.57008
C          8.70103        24.87367         0.40059
C          7.52361        25.56034        -0.11557
C          8.65143        27.86665         0.29169
C          7.48966        27.11394        -0.16918
C          8.59853        29.29077         0.31202
C          7.29858        29.92355         0.20200
C         11.01616         3.64979         0.54594
C          9.73657         4.07358        -0.10866
C         11.00442         6.24230        -0.88842
C          9.72942         5.50697        -0.60940
C         11.03916         7.74083        -0.90066
C          9.74987         8.44537        -0.49715
C         11.12051        10.59143        -0.15462
C          9.78897         9.93368        -0.35156
C         11.00818        12.08236        -0.43232
C          9.75703        12.77821         0.00089
C         11.14008        14.89025         0.53934
C          9.79813        14.19881         0.39490
C         11.02248        16.32528         0.07551
C          9.75833        17.05993         0.39677
C         11.01432        19.20627         0.33180
C          9.83964        18.53567         0.56217
C         11.16472        20.59770         0.90412
C          9.87500        21.38230         0.82910
C         11.17195        23.50395         0.82089
C          9.90229        22.77267         0.82966
C         11.17809        24.95318         0.85484
C          9.87639        25.65489         0.81519
C         11.12421        27.95902         0.97180
C          9.83622        27.15977         0.79942
C         11.08049        29.24229         0.13059
C          9.80225        30.00277         0.37347
C         13.45802         3.62028         0.61053
C         12.21830         4.23283         0.22922
C         13.52210         6.32997        -0.37125
C         12.28340         5.53393        -0.50118
C         13.51022         7.74499        -0.66527
C         12.23534         8.42477        -0.87346
C         13.55226        10.63551        -0.77551
C         12.22818         9.94103        -1.05219
C         13.58767        12.10656        -0.80752
C         12.27618        12.86381        -0.57377
C         13.53855        14.93253        -0.18077
C         12.34218        14.23135        -0.10025
C         13.49351        16.38992        -0.12144
C         12.28676        17.05864        -0.09381
C         13.50926        19.27375        -0.35794
C         12.20997        18.51897        -0.21497
C         13.51238        20.72685        -0.01886
C         12.38365        21.36143         0.42975
C         13.64781        23.49970         0.68580
C         12.36525        22.79262         0.66546
C         13.63898        25.01222         0.77681
C         12.34565        25.71247         0.76658
C         13.57122        27.85984         0.49739
C         12.37740        27.15075         0.65863
C         13.56329        29.32701         0.42960
C         12.36111        30.01182         0.31503
C         15.92643         3.59288         0.65374
C         14.68086         4.24991         0.38889
C         15.95821         6.30182        -0.12949
C         14.69674         5.63905        -0.03554
C         15.94194         7.77560        -0.21365
C         14.69306         8.48800        -0.52312
C         15.99721        10.67178        -0.49395
C         14.73824         9.93933        -0.58244
C         16.03169        12.09246        -0.42558
C         14.82002        12.84162        -0.48321
C         16.04876        14.95425        -0.03337
C         14.81116        14.23733        -0.30197
C         15.96813        16.37068         0.06975
C         14.74313        17.12012        -0.18770
C         16.08176        19.25142        -0.46600
C         14.76851        18.50132        -0.29611
C         15.99384        20.64757         0.18911
C         14.79446        21.45355        -0.36210
C         16.06489        23.55273         0.12050
C         14.84807        22.85807         0.14620
C         16.07991        24.94606         0.32860
C         14.80562        25.70646         0.12073
C         16.03772        27.88014         0.40481
C         14.84772        27.18434         0.41521
C         16.04298        29.33110         0.31922
C         14.81362        30.01608         0.36693
C         18.41772         3.59032         0.70816
C         17.14311         4.23284         0.44955
C         18.44147         6.25072        -0.29805
C         17.14939         5.61069         0.03585
C         18.48485         7.72231        -0.59527
C         17.23618         8.50477        -0.35882
C         18.46404        10.60152        -0.67333
C         17.24434         9.96342        -0.60071
C         18.52554        12.03213        -0.33643
C         17.26727        12.80609        -0.27123
C         18.62300        14.83880        -0.04517
C         17.30279        14.19522        -0.03305
C         18.82854        16.15622         0.41475
C         17.05005        17.19560         0.51297
C         18.51927        19.18822         0.23033
C         17.24973        18.52420         0.15618
C         18.53770        20.63917         0.16905
C         17.32058        21.37671         0.12507
C         18.53157        23.51113         0.04352
C         17.33670        22.80491         0.07204
C         18.49398        24.97560        -0.30168
C         17.34698        25.66410         0.41565
C         18.54499        27.86912        -0.05469
C         17.34189        27.17442         0.41659
C         18.48860        29.28933        -0.16462
C         17.26703        29.99047         0.07514
C         19.61148         4.24389         0.58808
C         20.86983         6.33687         0.08531
C         19.69798         5.60901         0.12248
C         20.91216         7.72496        -0.29285
C         19.77631         8.44073        -0.55797
C         20.96466        10.63870        -1.17096
C         19.68999         9.83542        -1.15731
C         21.00829        11.97164        -1.03114
C         19.85174        12.75348        -0.53164
C         20.88512        15.02772        -0.96011
C         19.78799        14.22316        -0.58878
C         20.88449        16.40997        -0.76837
C         19.85106        17.01941        -0.02134
C         20.96306        19.20617         0.25004
C         19.76882        18.47130         0.21019
C         20.97006        20.60555         0.31494
C         19.78783        21.33796         0.23477
C         20.99376        23.56753        -0.20065
C         19.82492        22.84793         0.42158
C         20.97777        24.92901        -0.36767
C         19.79844        25.71538        -0.22133
C         20.93324        27.91865        -0.55285
C         19.76714        27.15337        -0.27021
C         20.87684        29.30710        -0.65757
C         19.67782        29.99633        -0.47865
O          3.22281        25.12726        -1.93701
O          9.99207        16.56532        -0.94958
O          6.25047         5.37048        -1.78944
O          2.71164        14.69233         2.34354
O          9.53413        26.41765         2.05873
O          2.91340        12.08477         2.22687
O          6.11755        10.68922         1.80865
O         16.66976         8.30602         0.98953
O         10.09269        12.50637        -1.47524
O         18.42071         6.75959        -1.70673
O          0.85722         6.84940        -1.68130
O          7.72043        13.16702         2.25067
O          2.84250         9.56874         1.50719
O         17.96046        16.62238         1.41215
O         12.83382        12.70003        -1.93090
O          6.76088        18.97955         2.50411
O         13.92004        24.24271         1.95849
O          7.78244        26.30400        -1.36253
O          5.49265        14.31273         2.56030
O          1.78394        19.25143        -2.27895
O          8.52405         6.96786        -2.05685
O         17.62596        26.36669         1.64987
O         11.80395         5.54561        -1.90395
O         12.65600        19.01689        -1.54219
O         19.43771        12.28056         0.80306
O          3.56758        27.50711         1.50975
H          2.71118        27.90731         1.77253
O         19.43249         9.58015        -2.58657
H         19.08368         8.66686        -2.69008
O         11.05023        28.79046        -1.26675
H         10.99928        29.58314        -1.84076
O         11.86523        10.18112        -2.42615
H         12.00871        11.14293        -2.61275
O         11.42449        20.37615         2.33796
H         10.57433        20.13063         2.76193
O          6.89608        10.76251        -1.70919
H          7.58192        10.56396        -2.38418
O         11.56650        10.41158         1.22004
H         10.87614        10.77129         1.81762
O          9.68649         3.25347        -1.33835
H         10.40130         3.58725        -1.92612
O         19.97341        23.05066         1.88112
H         19.11918        22.81603         2.30262
O         11.43600        14.90368         1.96750
H         10.70795        15.39741         2.42793
O          7.30074        21.65794         2.64091
H          7.14492        20.77240         3.05086
O         14.89917        21.52064        -1.81934
H         14.07816        21.93010        -2.16507
O         15.68121        20.45255         1.59153
H         16.43098        19.98219         2.01379
O          9.16493        16.35120         2.59541
H          8.49736        15.89303         3.15175
O         18.07456        25.07041        -1.71845
H         18.74833        24.60319        -2.25755
O         14.50393        25.61988        -1.32371
H         15.30014        25.91790        -1.81436
O          9.53263         7.91316         0.87498
H         10.20319         8.34094         1.45295
O          3.31028         7.61729        -2.45260
H          4.21653         7.50388        -2.83617
O          4.13159        18.72431         2.46893
H          4.82370        18.53349         3.14139
O          4.83739        12.92394        -0.76422
H          5.33862        12.21503        -1.23472
O         11.22224        28.36085         2.35248
H         10.83859        27.62911         2.88949
O          1.07499        24.66541         1.00148
H          0.23129        24.20673         1.19593
O         16.36605        19.34181        -1.87833
H         15.70953        19.96189        -2.27819
O          5.92807         7.81138        -2.70280
H          6.48408         7.04021        -2.97085
O          3.57477        21.17498        -2.38487
H          3.32628        20.35007        -2.86287
H          1.37041         2.89866         1.80326
H         -0.79141         3.30469         0.61884
H         -0.94121         5.15186        -1.07424
H         -1.19629         8.37377        -1.23024
H         -1.19799        10.58834        -0.17555
H         -1.14392        12.34769         0.34459
H         -1.04760        14.72623         0.22376
H         -0.92631        16.56768        -0.10892
H         -0.74809        18.80268        -1.03093
H         -0.53494        20.60195        -1.95353
H         -0.67475        22.98456        -1.49564
H         -0.83794        24.93012        -1.29650
H         -0.76329        27.35430        -1.47189
H          0.30759        29.55416        -0.86001
H          3.74058         3.25708         1.95707
H          2.35983        30.87009        -0.48253
H          6.09609         3.22667         1.76136
H          4.82482        30.95136        -0.17489
H          8.50418         3.02815         1.46063
H          7.24859        31.02153         0.25330
H         11.01649         2.69224         1.08980
H          9.80066        31.10295         0.40315
H         13.43383         2.60685         1.03777
H         12.36415        31.10706         0.19750
H         15.90853         2.55217         1.01016
H         14.80743        31.11185         0.26393
H         18.40425         2.54491         1.05064
H         17.27327        31.08853         0.00255
H         20.54674         3.72367         0.84351
H         21.81277         5.85341         0.37994
H         21.89403         8.22000        -0.31763
H         21.86837        10.10533        -1.50286
H         21.96026        12.50269        -1.18346
H         21.75975        14.55806        -1.43080
H         21.72217        17.01004        -1.14991
H         21.92327        18.67149         0.25338
H         21.93302        21.12571         0.41076
H         21.93057        23.01923        -0.37521
H         21.92068        25.42884        -0.63952
H         21.89453        27.41215        -0.71284
H         21.79438        29.86695        -0.88749
H         19.65045        31.09226        -0.55735
