         286
 CSIRO Nanostructure Databank - Neutral Graphene Oxide Data Set
C        -11.22837         0.78239         0.09256
C        -10.01457         1.60512         0.42991
C         -8.74243         0.78869         0.34511
C         -7.47234         1.55966         0.35424
C         -6.20883         0.83981         0.68712
C         -5.01783         1.64751         1.10207
C         -3.75842         0.88374         1.35502
C         -2.45342         1.55918         1.10894
C         -1.20799         0.89010         1.70315
C          0.05853         1.57139         1.07493
C          1.32931         0.78725         1.36091
C          2.62971         1.53564         1.26965
C          3.64569         0.74166         0.42341
C          4.88168         1.51733        -0.04451
C          6.12905         0.74332        -0.31973
C          7.40931         1.49865        -0.16244
C          8.70679         0.75936        -0.18035
C          9.99131         1.55418        -0.42050
C         11.09841         0.69878        -0.99162
C         -9.85949         2.86564        -0.48084
C         -8.68186         3.73047        -0.05081
C         -7.49563         3.05305         0.60763
C         -6.15377         3.68704         0.28549
C         -4.98814         3.06369         0.61778
C         -3.71668         3.79181         0.63958
C         -2.44709         3.02981         0.84060
C         -1.26913         3.81924         1.40448
C          0.09371         3.06293         1.47424
C          1.41179         3.81972         1.45870
C          2.77434         3.05839         1.55377
C          3.93748         3.76213         0.86230
C          4.84665         3.04440        -0.12068
C          6.22542         3.67526        -0.30785
C          7.36330         2.94816        -0.49512
C          8.54842         3.53479        -1.12876
C          9.71937         2.82394        -1.21711
C         -8.64328         5.06206        -0.24460
C         -7.39986         5.85049         0.11637
C         -6.17373         5.03584        -0.39863
C         -4.85792         5.80430        -0.24179
C         -3.68635         5.13507         0.38541
C         -2.41703         5.92416         0.44106
C         -1.14399         5.22688         0.82783
C          0.10676         6.00026         1.17761
C          1.41544         5.27363         1.06807
C          2.54675         5.94924         0.69563
C          3.84662         5.21901         0.55965
C          4.86942         5.78560        -0.40426
C          6.18216         5.11014        -0.70406
C          7.24713         5.59615        -1.65475
C          8.39097         4.84144        -1.75184
C         -7.38357         7.25072        -0.44736
C         -6.22773         7.93294        -0.62213
C         -4.89634         7.28681        -0.40842
C         -3.80464         8.14321         0.19040
C         -2.54964         7.42030         0.64142
C         -1.29385         8.17432         1.02537
C          0.05973         7.48338         0.95959
C          1.23622         8.17588         0.31001
C          2.50197         7.37083         0.19432
C          3.38708         7.68566        -0.96803
C          4.33855         6.79181        -1.32426
C          6.06294         7.65035        -2.40136
C          7.22960         6.99238        -2.11013
C         -6.19620         9.34212        -0.99422
C         -5.10316        10.10369        -0.81601
C         -3.79959         9.65598        -0.18620
C         -2.67387         9.96953        -1.20534
C         -1.39162        10.07080        -0.92456
C         -0.10543        10.19409        -0.65052
C          0.90546         9.08277        -0.90373
C          2.14393         9.68704        -1.53437
C          3.29708         8.96857        -1.67083
C          4.48981         9.58160        -2.27418
C          5.73533         9.06124        -2.50499
C        -11.19320        -0.55773        -0.03075
C         -9.95112        -1.32754         0.02120
C         -8.70909        -0.56576         0.19020
C         -7.37071        -1.30740         0.21497
C         -6.39270        -0.60190         1.17997
C         -5.07394        -1.37093         1.35973
C         -3.76807        -0.63434         1.41583
C         -2.47332        -1.38433         1.16262
C         -1.18303        -0.64089         1.41148
C          0.12662        -1.35696         1.85252
C          1.29346        -0.74781         1.03955
C          2.65463        -1.42462         1.36047
C          3.90709        -0.64299         1.07571
C          5.26253        -1.33179         0.93400
C          6.08440        -0.78916        -0.24303
C          7.47170        -1.38852        -0.25716
C          8.62071        -0.70089        -0.44735
C          9.78001        -1.44632        -1.09158
C         11.04003        -0.62595        -1.17147
C         -9.94941        -2.68195        -0.15521
C         -8.64553        -3.40843        -0.35965
C         -7.59306        -2.79260         0.59571
C         -6.25650        -3.52872         0.54484
C         -5.09321        -2.89822         1.26692
C         -3.81657        -3.67703         1.40783
C         -2.50511        -2.93802         1.00358
C         -1.21801        -3.62629         1.50142
C          0.08263        -2.90003         1.75791
C          1.44924        -3.69148         1.76095
C          2.71215        -2.91245         1.35446
C          3.91496        -3.56113         1.16180
C          5.16398        -2.85341         0.80772
C          6.31618        -3.51185         0.45032
C          7.43200        -2.89942        -0.39086
C          8.80258        -3.53969        -0.17970
C          9.91689        -2.81447        -0.45305
C         -8.65280        -4.91955        -0.37333
C         -7.49102        -5.61796        -0.32984
C         -6.23221        -4.96838         0.15797
C         -5.06931        -5.84993         0.52348
C         -3.84465        -5.24202         1.29470
C         -2.47383        -5.86996         0.95202
C         -1.19044        -5.10890         1.16412
C          0.09493        -5.69381         0.64626
C          1.36979        -4.97176         0.90607
C          2.64223        -5.77214         0.83537
C          3.94035        -5.05678         1.01434
C          5.14851        -5.64788         0.33837
C          6.43054        -4.97937         0.76974
C          7.68375        -5.67975         0.31001
C          8.81030        -4.98361         0.02395
C         -7.31099        -6.78833        -1.28868
C         -6.19563        -7.79156        -0.97146
C         -5.00238        -7.17144        -0.19091
C         -3.62033        -7.55710        -0.69557
C         -2.46493        -7.27055         0.29338
C         -1.11378        -7.58608        -0.40895
C          0.08326        -7.23544         0.50893
C          1.35729        -7.80967        -0.08750
C          2.62760        -7.06774         0.06119
C          3.93143        -7.85214         0.23683
C          5.14225        -7.02720        -0.21162
C          6.47373        -7.70937        -0.54588
C          7.63338        -7.19491         0.36877
C         -5.74102        -8.51881        -2.22624
C         -4.57252        -9.17189        -2.27710
C         -3.62250        -9.06158        -1.10551
C         -2.23614        -9.59638        -1.37377
C         -1.09402        -8.99673        -0.98876
C          0.24873        -9.62821        -1.36343
C          1.34315        -9.31862        -0.31825
C          2.70803        -9.84110        -0.71238
C          3.87633        -9.22758        -0.41416
C          5.17759        -9.87197        -0.58336
C          6.35227        -9.21331        -0.54134
O          3.44628        -0.83309         2.43863
O         -1.66660        -0.85623         0.05593
O          4.03750        -8.03044         1.62262
O          0.32716         8.13483        -1.83633
H          0.07071         8.61519        -2.65105
O          4.53717         4.72997         1.74777
O         -2.28478         2.07139        -0.24296
O         -1.72193        -5.93083         2.22010
O          0.71395         3.45758         2.71418
O          6.42647        -5.10253         2.22241
H          7.18939        -4.60019         2.57771
O          1.67850        -4.10390         3.11401
H          0.81165        -4.34678         3.51316
O          6.07504         6.14800         0.35474
O         -1.35866         9.23277         1.62835
O          3.36682        -5.88905         2.08078
O          0.34503        -1.04171         3.23433
H         -0.09611        -1.73098         3.78057
O         -8.29976        -3.14389        -1.76400
H         -7.57953        -3.76990        -2.01471
O         -4.53953         1.45820         2.46373
O         -4.62666        -3.36893         2.56946
O          2.35289         8.47891         1.15932
O         -1.46039         5.45748        -0.57898
O         -6.54302         1.14269        -0.69737
O         -4.45607         6.44896        -1.52703
O         -4.44176        -1.02843         2.63882
O          2.95397         0.46797        -0.83187
H          3.66159         0.27960        -1.50157
O         -4.04358        -5.72187         2.64248
H         -4.73777        -5.16880         3.06788
O        -10.20947         2.06833         1.78886
H         -9.38706         2.52256         2.09357
O          0.94484        -1.04638        -0.31550
H          1.61870        -0.61640        -0.90387
O          0.12188       -11.03636        -1.50408
H          0.08289       -11.40833        -0.59634
O         -6.69903        -1.27318        -1.04892
H         -7.28386        -1.72540        -1.70848
O         -6.99741        -0.51242         2.48945
H         -6.25831        -0.41073         3.13694
O         -0.78185        -3.36794         2.85987
O          2.09305         1.00605         2.54158
O         -5.81635        -3.91327        -0.80801
O         -9.67047         2.46101        -1.84042
H         -8.76656         2.09494        -1.94068
O          8.07505         1.14844         1.09512
O         -6.39442         4.76924        -1.79999
H         -5.72420         5.28980        -2.30310
O          3.17442         3.14516         2.93077
H          2.45073         2.76746         3.47918
O          0.02793         1.57704        -0.36419
H         -0.25114         0.68729        -0.68107
O         -5.34291        -7.12416         1.20648
O         10.49228         2.01527         0.86167
H          9.71145         2.09814         1.45887
O         -1.21782         1.13065         3.10518
H         -0.46823         0.63091         3.51159
O          4.15611         3.34517        -1.38025
H          4.52921         2.74931        -2.07138
O         -3.65203        10.45140         0.98020
H         -2.89610        10.09420         1.51203
O          0.95580       -10.02417         0.87748
H          1.52066        -9.71953         1.61965
O         -7.01086        -6.14943        -2.54768
H         -6.11276        -5.75747        -2.48827
O          0.71641        -4.87664        -0.39284
O          5.30123         1.15380        -1.43021
O         -2.50928        -3.19858        -0.41992
H         -1.96266        -2.50632        -0.86199
O          8.84653        -7.76846        -0.09648
H          8.81522        -7.72330        -1.07825
O         -0.96655        -6.67943        -1.53455
H         -0.01125        -6.60373        -1.76768
O         -6.77764        -8.78709        -0.10755
H         -6.05149        -9.41428         0.13198
O         -3.61657         7.80403         1.58155
O          4.89784        -5.87721        -1.08384
O          1.94275        -7.07002        -1.21496
O          4.92738         6.83267        -2.58944
O         -3.51815        -6.72891        -1.87014
H         -2.59194        -6.75462        -2.21181
O          0.01054        -7.80459         1.81474
H         -0.93246        -7.80682         2.11654
O          9.38071        -1.67995        -2.47104
H          8.57620        -2.27069        -2.44992
O         -7.30053         5.98881         1.55235
H         -7.56118         5.13160         1.96763
O         -2.62880        -8.19263         1.40190
H         -3.32200        -7.80453         1.99050
O          7.11788        -3.13849        -1.75462
O          0.16825         6.91678         2.31393
O         -7.67954         3.23651         2.06214
H         -6.92285         2.81796         2.52985
O         -1.70649         4.04515         2.76540
H         -0.90441         4.12393         3.33473
O          5.39802        -1.23695        -1.42972
H          5.91096        -2.00481        -1.82910
O         -4.18584        -9.84395        -0.01881
H         -3.61225        -9.68518         0.76940
O          6.01075        -1.05008         2.13071
H          5.38806        -1.12734         2.88955
O         -8.11706        -2.91684         1.92593
H         -7.85115        -2.12207         2.45172
O          6.85667        -7.35569        -1.89471
H          6.37625        -6.52330        -2.12244
H         11.93490        -1.15489        -1.53553
H         12.05775         1.21823        -1.14219
H         10.57752         3.28413        -1.73157
H          9.24842         5.23440        -2.31922
H          8.18346         7.54167        -2.10455
H          6.53838         9.75878        -2.79131
H          4.37646        10.66244        -2.46363
H          2.06780        10.69611        -1.96831
H          0.27966        11.15561        -0.26927
H         -3.00367        10.21943        -2.23073
H         -5.14735        11.17408        -1.06663
H         -7.12282         9.79055        -1.38366
H         -8.34489         7.76555        -0.60303
H         -9.50052         5.58294        -0.70024
H        -10.80146         3.46670        -0.44128
H        -12.18869         1.31573         0.02736
H        -12.12141        -1.11565        -0.22818
H        -10.89713        -3.21852        -0.31336
H         -9.52771        -5.39398        -0.84939
H         -8.27576        -7.33354        -1.41776
H         -6.45266        -8.58208        -3.06302
H         -4.28176        -9.75665        -3.16278
H         -2.16576       -10.59067        -1.84607
H          0.56838        -9.20973        -2.35506
H          2.72911       -10.84610        -1.16426
H          5.17458       -10.96680        -0.70450
H          7.29348        -9.77331        -0.64758
H          7.46175        -7.52165         1.42666
H          9.74303        -5.53228        -0.18363
H         10.91697        -3.26637        -0.36035
