         228
 CSIRO Nanostructure Databank - Neutral Graphene Oxide Data Set
C        -11.13900         0.64268        -0.30803
C         -9.93250         1.42008        -0.56320
C         -8.69724         0.66871        -0.89868
C         -7.39184         1.40961        -0.83306
C         -6.12975         0.70088        -0.51258
C         -4.96422         1.39197        -0.31412
C         -3.72657         0.68145        -0.03946
C         -2.47429         1.44081         0.06283
C         -1.27131         0.78952         0.10496
C          0.03408         1.52370        -0.00947
C          1.13126         0.86371         0.79462
C          2.41881         1.47735         0.75853
C          3.65225         0.65568         0.45628
C          4.91783         1.41240         0.08426
C          6.19611         0.70416        -0.25182
C          7.43732         1.60527        -0.54442
C          8.81340         0.93396        -0.53836
C         10.02359         1.51364         0.03522
C         11.18354         0.62163         0.05302
C         -9.88910         2.78538        -0.42796
C         -8.67438         3.57923        -0.57870
C         -7.40856         2.88949        -0.72396
C         -6.20153         3.56270        -0.73697
C         -4.99327         2.89272        -0.12750
C         -3.66374         3.57797        -0.32430
C         -2.50462         2.90703        -0.02867
C         -1.25904         3.63532         0.21521
C         -0.07798         2.97183         0.33956
C          1.19213         3.67083         0.76677
C          2.45946         2.86847         0.54723
C          3.69482         3.58389         0.37969
C          4.92743         2.86602         0.33631
C          6.14472         3.52631         0.44528
C          7.27657         2.56163         0.64636
C          9.28216         3.93305         0.71680
C         10.22186         2.80625         0.50239
C         -8.66789         4.94502        -0.31758
C         -7.50402         5.76211        -0.65400
C         -6.18770         4.99547        -0.99409
C         -4.88461         5.74975        -1.03443
C         -3.61202         5.02275        -0.66205
C         -2.44280         5.79448        -0.26090
C         -1.32475         5.13049         0.49859
C         -0.02409         5.79608         0.05663
C          1.23859         5.02176         0.09118
C          2.53618         5.75840         0.05965
C          3.76346         4.99455         0.32733
C          5.00730         5.68223         0.34314
C          6.22729         4.94190         0.37388
C          7.48167         5.59791         0.12905
C          8.60567         4.66915        -0.21482
C         -7.30750         7.13424        -0.13943
C         -6.13865         7.83375        -0.26968
C         -4.98735         7.29041        -1.09243
C         -3.63627         7.99314        -0.83754
C         -2.32707         7.20197        -0.59411
C         -1.12410         7.96103        -0.15549
C          0.02081         7.27813         0.10023
C          1.26577         7.98736         0.58835
C          2.53925         7.24205         0.21402
C          3.83330         7.89218         0.55949
C          5.06802         7.11074         0.34905
C          6.30084         7.76250         0.19813
C          7.49468         6.98326         0.02234
C         -6.02320         9.19854         0.20239
C         -4.87590         9.93500         0.11215
C         -3.61722         9.37998        -0.32972
C         -2.42449        10.06942        -0.15826
C         -1.13622         9.42508        -0.16014
C          0.07319        10.10975        -0.08461
C          1.33544         9.43938         0.13874
C          2.55766        10.07084         0.07282
C          3.84383         9.40171         0.40832
C          5.16241         9.97021         0.07758
C          6.29393         9.21004         0.04909
C        -11.18726        -0.71450        -0.27872
C         -9.99873        -1.56991        -0.50886
C         -8.71802        -0.83422        -0.78673
C         -7.47274        -1.49929        -0.29737
C         -6.18697        -0.74566        -0.19887
C         -4.91788        -1.48898        -0.00565
C         -3.71158        -0.69987         0.07046
C         -2.42921        -1.36783         0.49909
C         -1.18942        -0.70702        -0.09199
C         -0.00484        -1.33008         0.62647
C          0.94030        -0.48979         1.16535
C          2.89801        -1.58875         1.35994
C          3.80626        -0.80679         0.72758
C          5.15252        -1.45708         0.48114
C          6.10928        -0.66478        -0.38618
C          7.09662        -1.42221        -1.08061
C          8.93391        -0.30253        -1.13374
C          9.98079        -1.27402        -0.92293
C         11.17929        -0.67707        -0.37201
C         -9.93112        -2.97162        -0.03553
C         -8.74786        -3.70669        -0.04913
C         -7.45798        -2.99901        -0.30444
C         -6.17251        -3.66336         0.07154
C         -4.93758        -2.84582         0.24650
C         -3.68210        -3.55887         0.59581
C         -2.40383        -2.86159         0.26333
C         -1.10636        -3.60002         0.35556
C          0.18169        -2.80836         0.49605
C          1.47248        -3.57477         0.68860
C          2.81235        -3.08550         1.28246
C          3.92918        -3.66791         0.44298
C          5.05467        -2.91502         0.09963
C          6.17742        -3.55769        -0.47592
C          7.30889        -2.77895        -0.92514
C          8.58554        -3.41628        -1.20859
C          9.82103        -2.65060        -1.12599
C         -8.68241        -5.11765         0.12108
C         -7.45954        -5.83573         0.30483
C         -6.22359        -5.04282         0.71511
C         -4.92648        -5.77084         0.37220
C         -3.65016        -5.05667         0.65767
C         -2.37834        -5.80108         0.56299
C         -1.13785        -5.04187         0.78219
C          0.17881        -5.80711         0.82438
C          1.44016        -5.07897         0.61857
C          2.58515        -5.75531         0.26212
C          3.84066        -5.02828         0.06936
C          4.96004        -5.66008        -0.50917
C          6.16054        -4.94821        -0.72973
C          7.39770        -5.61462        -1.12492
C          8.59713        -4.81271        -1.24937
C         -7.39137        -7.21786         0.29926
C         -6.15543        -7.95522         0.77139
C         -4.88404        -7.25297         0.34539
C         -3.58517        -7.94960         0.47271
C         -2.36253        -7.20869         0.53579
C         -1.10342        -7.93081         0.49883
C          0.13084        -7.25328         0.54248
C          1.34408        -7.92722         0.22558
C          2.55887        -7.19498         0.04432
C          3.70292        -7.85447        -0.43528
C          4.86351        -7.07165        -0.89833
C          6.17113        -7.78843        -1.25700
C          7.41489        -6.99925        -1.23371
C         -6.06748        -9.42434         0.43271
C         -4.87609       -10.05080         0.31188
C         -3.58480        -9.36077         0.39981
C         -2.36588       -10.05156         0.31616
C         -1.11737        -9.36066         0.31803
C          0.10295       -10.04152         0.11348
C          1.33070        -9.34599         0.00312
C          2.55340       -10.00266        -0.32408
C          3.72467        -9.27682        -0.56263
C          4.99837        -9.93043        -0.83886
C          6.15134        -9.25418        -1.07765
O         -8.00687         1.04380        -2.13450
O          9.21674         4.33273         2.02381
H          9.51708         3.60706         2.60582
O         -1.13947        -0.92979        -1.50770
H         -0.38797        -0.40035        -1.86158
O          1.13183        -3.06118        -0.63168
O         -7.08748        -0.94419         1.00375
O          1.07349         3.96334         2.20328
H          1.15804         3.11527         2.68979
O         -9.40483        -1.46432        -1.88803
O         -6.29899        -4.86704         2.14382
H         -6.23039        -5.76196         2.55171
O         -5.23018         3.06869         1.33021
H         -4.53641         2.56356         1.80743
O         -4.96860        -6.46735        -0.90081
O          7.22662         2.33486        -1.76199
H          7.16171         1.68513        -2.49374
O          0.43826         1.43295        -1.42424
H          0.17083         2.26148        -1.87746
O         -6.15854        -7.83962         2.24596
H         -6.89576        -8.38961         2.58660
O         -4.03417         5.24955        -2.10280
O         -1.49480         5.32187         1.92733
H         -0.67822         4.97363         2.36080
O          5.22480        -7.33105        -2.29322
O         -7.06333         5.48924        -2.02838
O          2.61296         6.66031        -1.11231
O          1.19493         7.97499         2.04218
H          2.03221         8.39419         2.36427
O         -2.33019        -1.18358         1.94063
H         -3.05338        -1.69147         2.36839
O         -5.32167         7.61094        -2.46025
H         -4.65325         7.15749        -3.02212
O          5.81583        -1.46733         1.80190
H          6.06017        -0.54421         2.03082
O          3.94460         0.98969        -0.95197
O          2.89392        -3.65583         2.60849
H          3.74279        -3.37486         3.00918
O         -2.74108         7.68301        -1.93034
O          0.50134         5.14527        -1.15726
O         -0.50019        -5.35069         2.06001
O         -6.62994        -3.62873        -1.32596
O          7.64962         2.23597         1.77351
O          3.80765         8.73450         1.75078
O          1.85173        -1.02442         2.08781
O         -3.70149        -4.22885         1.89776
O         -1.76847        -3.38144        -0.93330
O          7.89249        -0.70353        -1.98240
H         12.08403        -1.29292        -0.25967
H         12.11387         1.03128         0.47600
H         11.21917         2.98871         0.94511
H          8.69198         4.39214        -1.27686
H          8.43438         7.50891        -0.20238
H          7.25310         9.69727        -0.18427
H          5.21915        11.03944        -0.17795
H          2.60202        11.12913        -0.23146
H          0.07748        11.20558        -0.19379
H         -2.47038        11.13098         0.13198
H         -4.87383        10.97340         0.47590
H         -6.92313         9.66067         0.63559
H         -8.13851         7.58457         0.42704
H         -9.56752         5.43504         0.08452
H        -10.81645         3.32603        -0.18082
H        -12.05988         1.21049        -0.10277
H        -12.13829        -1.21373        -0.03772
H        -10.87711        -3.47585         0.21572
H         -9.62273        -5.69064         0.09670
H         -8.29563        -7.80373         0.06787
H         -7.00178       -10.00175         0.34875
H         -4.85165       -11.13470         0.11863
H         -2.36882       -11.14561         0.19861
H          0.09029       -11.13295        -0.02659
H          2.55913       -11.09737        -0.43512
H          5.02364       -11.02880        -0.77079
H          7.10082        -9.80352        -1.16946
H          8.37278        -7.52657        -1.36371
H          9.55250        -5.33884        -1.40306
H         10.73394        -3.26121        -1.01360
