         252
 CSIRO Nanostructure Databank - Neutral Graphene Oxide Data Set
C         30.36179        31.88310         0.21930
C         30.36770        32.87455         0.97722
C         30.31726        36.10021         1.21278
C         30.28292        37.28087         0.84985
C         30.33649        40.34867        -0.24720
C         30.28444        41.52870        -0.81993
C         32.75875        29.32144        -1.02438
C         31.63143        29.86387        -0.85617
C         32.73641        31.72265         0.17480
C         31.47057        31.08971        -0.19084
C         32.77652        33.03823         0.75376
C         31.53673        33.70276         1.24461
C         32.69804        35.94290         0.84313
C         31.47906        35.21788         1.35730
C         32.66104        37.46838         0.59342
C         31.39623        38.29355         0.97627
C         32.70369        40.23081        -0.23241
C         31.34021        39.57307         0.19485
C         32.66298        41.78147        -0.22814
C         31.33366        42.39022        -0.87351
C         32.71586        44.34564        -1.35025
C         31.65322        43.68130        -1.36239
C         35.41927        27.71793        -1.18165
C         35.26699        29.03089        -0.64874
C         34.03428        29.76055        -0.61231
C         35.21502        31.59660         0.67582
C         33.97791        31.04068        -0.01931
C         35.23361        33.09862         0.56681
C         34.02137        33.75370         0.71700
C         35.18320        36.01368         0.41597
C         34.03145        35.22483         1.10107
C         35.17988        37.45902         0.94070
C         33.92158        38.19352         0.54554
C         35.19558        40.35629         0.14492
C         33.89135        39.70693         0.61037
C         35.21789        41.60815        -0.39521
C         33.97314        42.29230        -0.86183
C         35.31883        44.47606        -1.21096
C         34.05503        43.72391        -1.37837
C         35.43514        45.90578        -1.25589
C         37.76106        27.37586        -0.79997
C         36.46475        27.02889        -1.22525
C         37.69563        28.72598        -0.14587
C         36.47250        29.56915        -0.13603
C         37.74162        31.59823         0.65402
C         36.53951        30.93422         0.33475
C         37.80674        33.05568         0.78141
C         36.54610        33.78998         0.47992
C         37.79770        36.03342         0.88480
C         36.56231        35.30222         0.48143
C         37.64116        37.49947         0.88196
C         36.45508        38.14305         0.56521
C         37.71221        40.19708        -0.10751
C         36.45732        39.65408         0.63866
C         37.69075        41.73102         0.01213
C         36.51607        42.31115        -0.80507
C         37.72781        44.59785        -0.50738
C         36.46744        43.83681        -0.74576
C         37.84978        45.99894        -0.98670
C         36.59834        46.43563        -1.37718
C         40.16784        24.57834        -0.98400
C         39.11972        25.25441        -1.04812
C         40.22866        27.24696        -0.44312
C         38.94499        26.63344        -0.74142
C         40.23477        28.72644        -0.40903
C         39.00819        29.41065         0.10311
C         40.32698        31.53912         0.79270
C         39.02254        30.83502         0.61193
C         40.28216        33.02500         1.27378
C         38.99347        33.80435         0.89366
C         40.31768        35.96527         0.98770
C         39.00775        35.28335         0.97863
C         40.55861        37.29712         1.26802
C         38.75001        38.41870         1.14310
C         40.31316        40.11086         0.04884
C         38.95073        39.63027         0.55251
C         40.31696        41.63857        -0.19982
C         39.02004        42.38193        -0.33784
C         40.32649        44.57597        -0.30220
C         39.01700        43.87805        -0.21614
C         40.40103        45.91453        -0.62430
C         39.19467        46.53779        -1.39437
C         40.44598        48.60503        -1.09138
C         39.34520        48.03865        -1.23657
C         42.71453        24.48357        -0.61375
C         41.46662        25.09470        -0.72673
C         42.71574        27.28349        -0.23388
C         41.45891        26.55669        -0.48508
C         42.75877        28.69375        -0.11444
C         41.54380        29.49216        -0.36819
C         42.80409        31.68677         0.00384
C         41.42803        31.04022        -0.17838
C         42.85228        33.09699         0.45303
C         41.60879        33.76251         0.97758
C         42.85064        35.95234         0.41141
C         41.60503        35.23616         0.86687
C         42.90041        37.42548         0.59708
C         41.69503        38.10652         0.83966
C         42.82062        40.21879         0.40614
C         41.61323        39.52611         0.64160
C         42.84491        41.66473        -0.07193
C         41.54081        42.43044         0.09388
C         42.66919        44.59681         0.55200
C         41.49895        43.80922         0.09946
C         42.68190        46.04102         0.36774
C         41.62317        46.67672        -0.31903
C         42.87948        48.69592        -0.13987
C         41.65734        48.11334        -0.55700
C         43.74628        25.18714        -0.36354
C         45.26945        27.15421         0.09966
C         43.95950        26.52538        -0.12691
C         45.33373        28.68545         0.22112
C         44.00991        29.40264         0.29015
C         45.32188        31.65374         0.08162
C         44.04546        30.89726         0.30632
C         45.36591        33.00554         0.21552
C         44.19008        33.74289         0.83330
C         45.42870        35.92956         0.42029
C         44.14030        35.19478         0.34310
C         45.38929        37.38723         0.64538
C         44.10843        38.13278         0.48247
C         45.32132        40.28207         0.06922
C         44.06768        39.54106         0.40884
C         45.33950        41.75857         0.22655
C         44.09470        42.40978         0.35668
C         45.30397        44.62180         0.69739
C         44.02865        43.81693         0.72047
C         45.14540        46.11314         0.21074
C         43.95278        46.75906         0.93554
C         43.78692        48.21045         0.55633
C         47.54846        27.33820        -0.56615
C         46.51813        26.64901        -0.48884
C         47.73270        28.76158        -0.57366
C         46.54791        29.42444        -0.21913
C         47.84913        31.64329        -0.48600
C         46.50178        30.88450        -0.39653
C         47.86372        33.08913        -0.20046
C         46.54501        33.82615        -0.30606
C         47.88280        35.95959         0.21422
C         46.60222        35.25586         0.21323
C         47.92518        37.35169         0.31626
C         46.69721        38.12479         0.55694
C         47.89177        40.33803         0.24158
C         46.64823        39.55964         0.12960
C         47.84011        41.72809         0.23429
C         46.58866        42.42444         0.31563
C         47.87258        44.64566         0.20260
C         46.60876        43.89468         0.53683
C         47.56164        46.04383         0.19717
C         46.51835        46.68489         0.39116
C         50.27532        28.87839        -0.86542
C         48.98547        29.45794        -0.69049
C         50.36957        31.52027        -0.19438
C         49.07420        30.84093        -0.41276
C         50.36367        33.04954        -0.12146
C         49.06282        33.79227        -0.12410
C         50.37650        35.86051         0.41732
C         49.09738        35.20475         0.05701
C         50.41884        37.36435         0.68070
C         49.21595        38.10882         0.08049
C         50.45962        40.32952         0.45803
C         49.15173        39.58866         0.47058
C         50.44003        41.77613         0.01176
C         49.10286        42.48841        -0.02423
C         50.38204        44.50923        -0.11529
C         49.05346        43.99451         0.01068
C         51.40016        29.45483        -0.84346
C         52.72850        31.70426        -0.54658
C         51.65704        30.78564        -0.52281
C         52.75828        32.94926        -0.48379
C         51.58221        33.87336        -0.63105
C         52.74079        35.98985         0.36757
C         51.64690        35.14483         0.14189
C         52.86460        37.24303         0.33883
C         51.78551        38.16058         0.91436
C         52.75814        40.43920         0.15956
C         51.75607        39.54809         0.33267
C         52.86108        41.72351        -0.03206
C         51.77402        42.55236         0.00516
C         51.49364        43.94401        -0.11766
O         47.02736        31.32177        -1.69242
O         34.05471        42.57695        -2.30188
O         31.64535        34.41892         2.53267
O         43.37693        35.47647        -0.87266
O         39.85665        30.69918         1.86258
O         41.93352        34.57579         2.16034
O         32.45846        36.46548        -0.47649
O         50.52744        32.28005         1.08548
O         46.08179        37.85602         1.86744
O         46.11503        44.36110         1.86964
O         42.93901        32.76326        -0.97005
O         49.73956        41.96069        -1.25746
O         39.67295        37.98022         2.08715
O         36.74633        34.55326        -0.77998
O         49.80604        40.00408         1.72300
O         38.26549        44.41818         0.93151
O         39.70971        41.93707        -1.52885
O         45.95484        39.76465        -1.15624
O         43.16506        44.13793         1.85102
O         38.37241        28.61757         1.15865
O         45.49837        27.78481         1.37196
O         43.89587        30.16965         1.56351
O         40.86181        29.19225        -1.64175
O         50.19231        36.49625         1.79076
O         33.73540        40.10505         2.00417
H         34.64745        40.09149         2.39875
O         36.71697        42.03457        -2.22313
H         35.84171        42.18831        -2.66625
O         37.68592        39.73217        -1.46969
H         37.30175        40.43702        -2.05343
O         46.28486        33.98167        -1.73825
H         46.37277        33.08707        -2.14799
O         37.44539        42.00908         1.39540
H         37.55836        42.97960         1.55626
O         42.95100        41.55644        -1.53511
H         42.20722        40.99116        -1.84694
O         40.87389        31.56709        -1.40200
H         41.55293        31.53535        -2.10924
O         44.09825        46.56488         2.31084
H         43.28734        46.84082         2.78247
O         31.53619        38.60097         2.36165
H         30.86500        39.26850         2.61370
O         39.40926        46.21630        -2.77122
H         38.62554        46.49826        -3.28849
O         32.63737        42.30705         1.09772
H         32.94989        41.61673         1.73902
O         36.50183        39.92564         2.07618
H         36.45347        39.06783         2.55870
O         51.97357        38.27305         2.30063
H         51.59235        37.47193         2.72994
O         34.85895        36.15513        -0.96982
H         35.36108        35.46986        -1.47218
O         44.81942        46.09116        -1.17238
H         45.62945        45.94839        -1.70446
O         40.39131        39.50506        -1.28174
H         39.50513        39.63995        -1.71317
O         51.32329        34.14125        -2.01297
H         51.96785        34.80269        -2.34117
O         40.20318        32.98733         2.71188
H         39.79141        32.12714         2.96771
O         49.49309        38.10413        -1.35328
H         48.73355        38.50993        -1.82437
O         44.42145        33.73085         2.24677
H         43.60855        34.07810         2.69122
O         35.02665        31.30250         2.10642
H         35.11668        30.33396         2.23388
O         34.23284        35.19416         2.53935
H         33.44873        34.73277         2.93516
O         32.97476        39.79017        -1.56461
H         32.25016        40.08539        -2.15536
O         35.20991        37.56307         2.40634
H         34.67897        36.82075         2.79931
