         635
 CSIRO Nanostructure Databank - Neutral Graphene Oxide Data Set
C         22.86599        69.91928         0.24374
C         22.84578        71.30790         0.43390
C         21.66676        72.06367         0.32406
C         22.88576        74.17114         0.52703
C         21.69275        73.47168         0.40812
C         25.20679        65.53981        -0.11756
C         25.27716        67.05295        -0.03966
C         24.08580        67.78176         0.04665
C         25.33918        69.88587         0.34046
C         24.07790        69.18197         0.23959
C         25.36939        71.28687         0.53113
C         24.10065        72.00049         0.91939
C         25.34293        74.15056         0.60967
C         24.13349        73.48515         0.63274
C         27.78948        61.29998        -0.55097
C         27.77524        62.70133        -0.62903
C         26.55469        63.46114        -0.54841
C         27.73838        65.60425        -0.39160
C         26.52520        64.84295        -0.40994
C         27.73575        66.97140        -0.12809
C         26.52348        67.72235         0.01860
C         27.77448        69.88980         0.14353
C         26.55673        69.16378         0.17560
C         27.81038        71.29451         0.29600
C         26.58434        71.99750         0.49276
C         27.80680        74.13598         0.57524
C         26.60214        73.44849         0.59425
C         30.29935        57.02239        -0.55867
C         30.26917        58.41507        -0.54673
C         29.03635        59.15873        -0.50499
C         30.26899        61.27147        -0.98239
C         28.99810        60.54323        -0.60624
C         30.23448        62.74893        -0.66571
C         29.03089        63.42371        -0.66327
C         30.27720        65.62810        -0.53425
C         28.99231        64.92021        -0.88946
C         30.27345        66.96473        -0.23457
C         29.02196        67.66242         0.24984
C         30.31385        69.90904        -0.03984
C         29.02765        69.14520        -0.09670
C         30.30050        71.37383         0.16645
C         29.06037        72.03551         0.30233
C         30.29262        74.16258         0.44253
C         29.06454        73.45656         0.45236
C         32.84002        52.77576        -0.83446
C         32.77048        54.16112        -0.78483
C         31.54966        54.88895        -0.67094
C         32.77742        57.02171        -0.48708
C         31.52836        56.28815        -0.58956
C         32.76067        58.44242        -0.40327
C         31.52605        59.14749        -0.51960
C         32.75836        61.24484        -0.49919
C         31.53163        60.54790        -0.57691
C         32.72629        62.71223        -0.30431
C         31.48086        63.47100        -0.58127
C         32.79437        65.56847        -0.58459
C         31.50342        64.85290        -0.54832
C         32.81484        67.06113        -0.43119
C         31.54480        67.69364         0.00520
C         32.89534        69.94840         0.30544
C         31.57683        69.16470         0.25547
C         32.77215        71.38097        -0.17190
C         31.50917        72.09083         0.12765
C         32.80466        74.20361         0.24433
C         31.52258        73.50276         0.26579
C         35.29911        48.50976        -0.64704
C         35.28849        49.92289        -0.57472
C         34.08952        50.64978        -0.73757
C         35.33454        52.74784        -0.70601
C         34.08887        52.05894        -0.78515
C         35.35135        54.20658        -0.88981
C         34.02426        54.93307        -0.90024
C         35.23966        57.03237        -0.27552
C         34.01699        56.35460        -0.53300
C         35.23975        58.44552        -0.19248
C         33.99840        59.15257        -0.35958
C         35.29134        61.27278        -0.69545
C         33.98431        60.56489        -0.42621
C         35.30702        62.72656        -0.32333
C         34.04176        63.44011        -0.20405
C         35.27149        65.58482        -0.31447
C         34.06086        64.88474        -0.36956
C         35.26957        67.04230        -0.17235
C         34.07937        67.74445        -0.12634
C         35.33856        69.95741        -0.00940
C         34.08044        69.22908        -0.40551
C         35.35197        71.37588         0.00731
C         34.06986        72.13284        -0.23789
C         35.32237        74.32198         0.00508
C         34.00477        73.58477         0.04617
C         37.77536        44.26726        -0.90547
C         37.70674        45.64310        -0.59974
C         36.51400        46.38699        -0.74273
C         37.72365        48.47602        -0.18428
C         36.49388        47.77800        -0.50377
C         37.73950        49.90140        -0.17263
C         36.52753        50.62575        -0.37973
C         37.80094        52.73592        -0.32643
C         36.54805        52.04634        -0.45330
C         37.85363        54.21780        -0.62942
C         36.54998        54.95686        -0.46359
C         37.65582        56.91837         0.59373
C         36.49214        56.29381        -0.16724
C         37.65727        58.50343         0.66321
C         36.46884        59.17505         0.00514
C         37.74300        61.29531        -0.09046
C         36.51549        60.54728        -0.19992
C         37.76651        62.70900        -0.24718
C         36.50426        63.44275        -0.33437
C         37.74826        65.63443        -0.65218
C         36.49707        64.86992        -0.32562
C         37.72091        67.07613        -0.15950
C         36.50128        67.74239         0.03883
C         37.76967        69.88985         0.39141
C         36.47290        69.15491         0.57299
C         37.76054        71.34485         0.77737
C         36.50100        72.08791         0.35953
C         37.77941        74.22879         0.50574
C         36.44929        73.55541         0.72311
C         40.38448        40.08498        -1.27543
C         40.28403        41.45686        -0.93099
C         39.08704        42.17992        -1.12126
C         40.11002        44.19064        -0.13128
C         38.97655        43.53835        -0.74197
C         40.00011        45.55697         0.24853
C         38.87509        46.30989        -0.07948
C         40.15282        48.44694         0.25496
C         38.91248        47.75294         0.05839
C         40.18455        49.84181         0.13702
C         38.98134        50.59062        -0.03729
C         40.25969        52.74808         0.00327
C         38.99528        52.03108        -0.13440
C         40.24993        54.18527         0.09462
C         39.04112        54.91572        -0.03140
C         40.19984        57.02062         0.38557
C         38.99072        56.29392         0.22301
C         40.18674        58.46339         0.38598
C         38.96827        59.17192         0.30102
C         40.20840        61.30176         0.12309
C         38.97721        60.58137         0.11295
C         40.21520        62.73216         0.01717
C         38.98241        63.43839        -0.16445
C         40.18656        65.58364        -0.20744
C         39.00551        64.87923        -0.28753
C         40.18641        67.07330        -0.49794
C         38.92431        67.78600        -0.09990
C         40.20692        69.95555        -0.00248
C         38.94292        69.21431         0.09745
C         40.17606        71.40484         0.08202
C         39.02560        72.07805         0.39573
C         40.22137        74.24712         0.39665
C         39.00032        73.54925         0.43335
C         42.99023        35.96624        -1.95404
C         42.83952        37.24997        -1.41770
C         41.65234        37.99779        -1.49889
C         42.66643        39.98758        -0.36927
C         41.55137        39.33936        -1.02778
C         42.62965        41.35539        -0.12936
C         41.43632        42.12057        -0.37258
C         42.44514        44.13337         0.69685
C         41.33265        43.47556         0.02228
C         42.20639        45.33305         1.29305
C         41.05012        46.25199         1.07312
C         42.67668        48.41381         0.85067
C         41.44629        47.61883         0.35925
C         42.58801        49.92866         0.91918
C         41.52573        50.53478        -0.00585
C         42.68219        52.75275         0.39330
C         41.46939        52.04914         0.15676
C         42.69965        54.19130         0.41493
C         41.46135        54.89771         0.32652
C         42.67406        57.03994         0.46243
C         41.44346        56.32130         0.37841
C         42.66606        58.46313         0.43273
C         41.43035        59.17359         0.35347
C         42.68385        61.29853         0.24659
C         41.43786        60.59316         0.26243
C         42.68250        62.74411         0.20968
C         41.44087        63.44382         0.10110
C         42.62925        65.58959         0.13527
C         41.43786        64.88988         0.01311
C         42.64582        67.06453         0.20462
C         41.38375        67.80894         0.04617
C         42.69404        69.97284        -0.04780
C         41.41103        69.28439        -0.10724
C         42.72562        71.38551        -0.03355
C         41.44559        72.17394        -0.24503
C         42.77348        74.23420         0.25102
C         41.50291        73.48114         0.54911
C         45.45613        33.12306        -1.97103
C         44.27422        33.84320        -2.14888
C         45.37657        35.83947        -1.29453
C         44.21075        35.21762        -1.80503
C         45.36282        37.32149        -1.04558
C         43.98272        37.80449        -0.64618
C         45.16018        39.85925         0.25432
C         43.88004        39.19110        -0.05626
C         45.09640        41.26418         0.67216
C         43.79635        42.02370         0.51802
C         45.07431        44.16129         1.15969
C         43.83058        43.54607         0.40858
C         45.14952        45.66418         0.92568
C         44.12910        46.44743         1.33301
C         45.18288        48.55994         0.80865
C         43.93695        47.84826         1.00107
C         45.17733        49.96029         0.72220
C         43.91798        50.65569         0.73939
C         45.17014        52.80510         0.93796
C         43.90772        52.03348         0.61477
C         45.21137        54.17109         0.26869
C         43.91635        54.91719         0.48299
C         45.14155        57.06626         0.66107
C         43.91336        56.32743         0.52121
C         45.13057        58.44646         0.60313
C         43.90273        59.17777         0.43650
C         45.18097        61.31607         0.03770
C         43.89611        60.58783         0.32469
C         45.14659        62.78801         0.37056
C         43.90002        63.45375         0.34960
C         45.12759        65.67526         0.49572
C         43.83994        64.91217         0.70477
C         45.13999        67.04972         0.35437
C         43.92429        67.76154        -0.17293
C         45.15000        69.93136         0.08551
C         43.91217        69.25351         0.03704
C         45.18047        71.35864         0.07543
C         43.95290        72.07550         0.04420
C         45.22705        74.21015         0.06767
C         43.96481        73.54165         0.10083
C         46.59891        33.73635        -1.45772
C         47.75202        35.78332        -0.63241
C         46.57803        35.11249        -1.11373
C         47.72121        37.12065        -0.20113
C         46.45783        37.80748        -0.14721
C         47.63327        39.98379         0.13140
C         46.37532        39.15089         0.29037
C         47.68899        41.29334         0.89504
C         46.37439        42.00339         0.98410
C         47.61481        44.17428         1.09166
C         46.36468        43.47381         0.63721
C         47.59860        45.64270         1.09133
C         46.40358        46.32547         0.42916
C         47.62501        48.48244         0.53750
C         46.42482        47.82623         0.66840
C         47.65433        49.93266         0.14749
C         46.40957        50.67363         0.53428
C         47.68338        52.76835         0.63622
C         46.44861        52.05646         0.63433
C         47.64231        54.20784         0.83300
C         46.46287        54.89710         0.72007
C         47.66804        57.07113         0.62021
C         46.41200        56.35625         1.08789
C         47.63302        58.43545         0.49878
C         46.39968        59.18691         0.94584
C         47.62075        61.30690         0.52397
C         46.42831        60.62856         0.52451
C         47.64210        62.78221         0.82601
C         46.34868        63.49006         0.50079
C         47.57476        65.60369         0.42916
C         46.36713        64.92686         0.52799
C         47.60163        67.05020         0.67522
C         46.36165        67.80884         0.40942
C         47.71895        69.87036         0.00723
C         46.38352        69.17725         0.20626
C         47.66453        71.37301         0.15811
C         46.44509        72.06236         0.10912
C         47.69364        74.19301         0.10286
C         46.44457        73.51058         0.09417
C         48.93312        37.83927         0.06355
C         50.10383        40.00556         0.22566
C         48.93284        39.23070         0.20549
C         50.14146        41.42638         0.42486
C         48.94298        42.08373         0.85942
C         50.00983        44.27023         1.49274
C         48.82774        43.49390         1.20260
C         50.16797        45.63485         1.17122
C         48.90591        46.39490         1.05023
C         50.17095        48.49400         0.61100
C         48.90771        47.71647         0.31803
C         50.14413        49.88992         0.55447
C         48.93676        50.64686         0.48460
C         50.17504        52.78935         0.76355
C         48.92379        52.05456         0.61371
C         50.18265        54.19972         0.95729
C         48.89737        54.94599         1.25062
C         50.12667        57.02494         0.61180
C         48.92737        56.35958         0.69577
C         50.17870        58.42043         0.18178
C         48.83333        59.18816         0.14981
C         50.09707        61.32789         0.31881
C         48.88685        60.63149         0.40077
C         50.10003        62.78384         0.28668
C         48.89043        63.46431         0.33888
C         50.15734        65.68096         0.17759
C         48.82886        64.90228         0.14414
C         50.16522        67.09576         0.55679
C         48.89148        67.77741         0.85900
C         50.16196        69.94976         0.58270
C         48.83417        69.30561         0.90996
C         50.14490        71.35692         0.39634
C         48.90454        72.06325         0.25347
C         50.16644        74.18923         0.17163
C         48.91004        73.50265         0.18618
C         51.38326        42.07925         0.08704
C         52.68299        44.30088         0.32425
C         51.80842        43.29361         0.66805
C         52.73775        45.56003         1.18850
C         51.40964        46.31065         1.01827
C         52.62344        48.45145         0.87915
C         51.40892        47.74198         0.78958
C         52.58463        49.93457         1.14633
C         51.45554        50.62513         0.39616
C         52.62743        52.78621         0.86378
C         51.40499        52.10065         0.72479
C         52.63923        54.21540         0.90152
C         51.39372        54.90201         0.96940
C         52.64517        57.10224         0.75382
C         51.37685        56.39912         1.18788
C         52.63907        58.49707         0.49864
C         51.39556        59.21705         0.34906
C         52.58128        61.36791         0.14166
C         51.35677        60.61902         0.22984
C         52.59871        62.76467         0.20731
C         51.35929        63.50407         0.23998
C         52.62449        65.63331         0.42978
C         51.39512        64.90655         0.30499
C         52.61852        67.05218         0.52944
C         51.37348        67.77956         0.61639
C         52.61909        69.93847         0.64221
C         51.36410        69.23448         0.64324
C         52.59168        71.37149         0.60527
C         51.39038        72.06602         0.42624
C         52.62869        74.20500         0.14953
C         51.37746        73.51447         0.27255
C         53.93807        46.39672         0.85672
C         55.11996        48.54228         0.83356
C         53.89840        47.77575         0.87312
C         55.14154        49.93148         0.88252
C         53.89129        50.67314         0.93983
C         55.15146        52.81048         1.19968
C         53.87798        52.04715         0.91460
C         55.11955        54.24574         0.73351
C         53.87371        54.93764         0.77592
C         55.05714        57.07370         0.32901
C         53.85580        56.38004         0.63786
C         55.05487        58.46924         0.18186
C         53.85255        59.18583         0.25313
C         55.10749        61.35891         0.05587
C         53.82880        60.61614        -0.23691
C         55.09043        62.77811         0.22022
C         53.85429        63.49318         0.25270
C         55.10364        65.62144         0.50754
C         53.86034        64.90501         0.39646
C         55.09045        67.05707         0.59635
C         53.85650        67.77706         0.61186
C         55.12254        69.93443         0.97161
C         53.83005        69.20545         0.69154
C         55.10801        71.38771         0.56374
C         53.85234        72.15304         0.87708
C         55.08220        74.21241         0.09728
C         53.84089        73.55599         0.31719
C         56.36565        50.66000         0.76286
C         57.58132        52.78225         0.59170
C         56.39712        52.05789         0.79030
C         57.57445        54.20115         0.48677
C         56.30953        54.89846         0.43335
C         57.56163        57.08115         0.19880
C         56.29179        56.31137        -0.08812
C         57.56131        58.45335         0.10915
C         56.30163        59.17740        -0.30411
C         57.55112        61.35075         0.14555
C         56.30534        60.65521         0.03422
C         57.56812        62.75581         0.28791
C         56.33160        63.48708         0.34965
C         57.60058        65.61783         0.84537
C         56.32077        64.89653         0.50529
C         57.59911        67.06968         0.42155
C         56.33838        67.79187         0.48720
C         57.52028        69.94360         0.15106
C         56.31752        69.17983         0.45876
C         57.53475        71.39711         0.32218
C         56.31069        72.08761         0.38295
C         57.53327        74.19581        -0.13412
C         56.30737        73.54106         0.16225
C         58.77617        54.92613         0.42359
C         60.00815        57.05029         0.43784
C         58.80426        56.34772         0.36762
C         60.04973        58.47989         0.37812
C         58.78862        59.20655         0.20349
C         60.08665        61.29453        -0.13445
C         58.78156        60.59255         0.12708
C         60.05609        62.77908         0.11801
C         58.83875        63.47426         0.30131
C         60.07142        65.59026         0.31670
C         58.85547        64.88271         0.43771
C         60.08096        67.03455         0.27933
C         58.80070        67.73325         0.29117
C         60.10938        69.91100         0.43674
C         58.82627        69.19005         0.05258
C         60.06976        71.37956         0.09592
C         58.82655        72.14569         0.46979
C         59.97493        74.15853        -0.49401
C         58.77111        73.53919        -0.10725
C         61.23678        59.16305         0.55308
C         62.57948        61.23397        -0.02331
C         61.28928        60.66315         0.59182
C         62.54497        62.75087        -0.04871
C         61.29084        63.46077         0.07382
C         62.52208        65.59780        -0.03618
C         61.29899        64.88608         0.12816
C         62.51911        67.02321        -0.06971
C         61.27458        67.72120         0.06105
C         62.58566        69.88873        -0.05939
C         61.26176        69.19453        -0.26492
C         62.53845        71.36391        -0.00477
C         61.22670        72.04899        -0.17305
C         62.40745        74.10700        -0.90389
C         61.21561        73.47672        -0.48440
C         63.72067        63.44964        -0.18375
C         64.92840        65.60175        -0.48130
C         63.74558        64.88423        -0.22564
C         64.93790        67.01069        -0.52064
C         63.73301        67.73178        -0.28121
C         65.06550        69.87899        -0.30599
C         63.75344        69.18617        -0.21220
C         65.10396        71.38757        -0.36535
C         63.80765        72.14655        -0.24908
C         64.75734        74.00128        -1.61415
C         63.66420        73.46467        -0.91737
C         66.13512        67.72831        -0.88933
C         67.30733        69.81946        -1.43827
C         66.20132        69.10485        -0.87057
C         67.31948        71.19077        -1.61472
C         66.33093        72.11605        -0.91971
C         66.99375        73.84640        -2.58804
C         65.99452        73.33603        -1.75723
C         68.33240        71.81703        -2.40553
C         68.18132        73.11993        -2.84461
O         44.12270        41.43897         1.79230
O         43.15069        45.88074         2.17423
O         65.43742        70.68405         0.87233
O         31.56685        68.23403         1.39890
O         48.20513        67.23475         2.05649
O         32.79267        66.48449        -1.77024
O         33.24386        63.03842         1.04579
O         41.89072        67.48943         1.40410
O         63.25536        72.04005         1.09563
O         49.44771        65.41082        -1.09488
O         43.69895        37.96210         0.76088
O         37.51280        56.42588         1.91614
O         29.72402        69.49372        -1.33409
O         47.34957        40.31284        -1.23330
O         46.98958        41.48918         2.18648
O         58.17757        69.59996        -1.17009
O         51.09218        43.51947         1.90406
O         49.48602        58.72939        -1.07355
O         34.75654        54.66160        -2.16293
O         48.10023        46.35121         2.26849
O         48.83613        55.10330         2.71215
H         49.63885        55.62831         2.96854
O         55.25992        69.94489         2.44602
H         54.61363        70.61913         2.77674
O         45.31329        53.93774        -1.16617
H         45.34768        54.80731        -1.61659
O         45.67323        37.99116        -2.32451
H         46.25862        38.77262        -2.12942
O         51.25718        56.59136         2.65435
H         52.07443        56.23171         3.06270
O         37.51771        58.85321         2.06732
H         37.47847        57.95955         2.53380
O         41.80238        47.26398        -1.00427
H         41.97071        48.11192        -1.48011
O         60.35256        61.10440        -1.56281
H         59.53368        61.32987        -2.05258
O         38.09986        54.26831        -2.09327
H         37.23559        54.13689        -2.54205
O         28.90754        65.03999        -2.36031
H         28.06976        64.61151        -2.63749
O         41.57843        73.08700         1.96316
H         41.57305        73.90317         2.50563
O         60.98449        69.30302        -1.69612
H         61.58146        68.68627        -2.16908
O         41.97685        50.24798        -1.36985
H         41.39459        50.73838        -1.98845
O         60.27713        69.77762         1.86652
H         59.80748        70.53553         2.29119
O         29.01906        67.56888         1.70825
H         29.92482        67.81440         2.02211
O         37.68264        71.36735         2.25844
H         37.06494        70.62291         2.49961
O         36.22351        69.06113         2.06830
H         36.76486        68.31302         2.40297
O         41.39817        72.53032        -1.65286
H         41.32897        71.70304        -2.17353
O         52.27372        50.05272         2.57040
H         52.87800        49.45954         3.06439
O         63.70093        60.77555         0.73139
H         63.49096        60.94774         1.67484
O         35.71902        74.46503        -1.36583
H         34.94148        74.74460        -1.89071
O         53.88000        72.32245         2.35944
H         54.59431        72.96632         2.55902
O         55.20794        52.89788         2.67179
H         55.23006        51.97962         3.01640
O         48.54069        69.72016         2.26048
H         48.22996        68.91823         2.74726
O         46.46597        59.22516         2.41333
H         46.41546        58.27991         2.72190
O         47.66365        49.87738        -1.36631
H         46.72806        49.78581        -1.65256
O         33.88927        69.25233        -1.83902
H         33.82007        70.19937        -2.12217
O         52.92952        45.23814         2.59512
H         52.30234        44.50812         2.81342
O         30.30835        61.23254        -2.45907
H         29.50368        61.68892        -2.78530
O         46.42568        56.44729         2.55546
H         47.21698        55.92617         2.86341
O         35.38555        61.28285        -2.17699
H         36.27018        61.63694        -2.41269
O         48.11986        69.58504        -1.36790
H         47.55512        70.11555        -1.96793
O         37.78940        65.74383        -2.13144
H         36.95378        66.17555        -2.41511
O         40.28245        67.19657        -1.95323
H         39.50072        66.71725        -2.32595
O         67.04502        72.64389         0.23569
H         66.92333        71.98425         0.95770
O         45.29241        61.25854        -1.43781
H         46.08135        61.78063        -1.69885
O         43.96656        43.81458        -1.00521
H         44.01326        44.78527        -1.13807
O         45.00033        43.88157         2.55699
H         44.25302        44.39832         2.93247
O         42.14275        50.23090         2.27750
H         42.79185        49.84873         2.90423
O         53.79164        60.49335        -1.72241
H         52.91996        60.10636        -1.95811
O         33.23707        70.10198         1.69846
H         33.05075        69.24744         2.15007
O         56.20743        56.21625        -1.55433
H         56.24701        57.14657        -1.89527
O         46.42119        43.46746        -0.80523
H         46.43286        44.40424        -1.13469
O         48.94086        47.39683        -1.12442
H         48.77548        48.25968        -1.58449
O         57.62794        65.64907         2.32207
H         58.42277        66.15788         2.59074
O         46.52471        46.14684        -1.01636
H         47.39785        46.55051        -1.28813
O         58.98074        72.32191         1.94982
H         59.71778        72.95786         2.08433
O         47.74228        62.82606         2.29771
H         47.04157        62.24284         2.66317
O         51.78331        50.53371        -1.02141
H         51.04880        50.94018        -1.52765
O         43.99268        67.57533        -1.63293
H         44.84622        67.94711        -1.94117
O         45.13452        53.05148         2.37117
H         45.16279        52.18724         2.83139
O         40.47533        46.59438         2.35344
H         41.21856        46.72706         2.98043
O         24.20553        65.13427        -1.06337
H         24.44178        65.50565        -1.93773
O         33.34940        71.74300        -1.47183
O         24.03885        71.89861         2.39110
H         23.21451        72.34902         2.67377
O         43.62285        64.95171         2.17049
H         43.27002        65.84176         2.39411
O         61.30193        61.06141         1.98856
H         60.56160        60.60796         2.44320
O         56.24196        59.08417        -1.77359
H         55.42109        59.57320        -2.04479
O         36.16004        73.64084         2.15234
H         36.75136        72.97448         2.58748
H         22.88487        75.26999         0.47562
H         25.35776        75.24918         0.53213
H         27.80390        75.23445         0.64222
H         30.27709        75.25744         0.55280
H         32.78893        75.28950         0.43221
H         35.21028        75.33906         0.47878
H         37.79445        75.33030         0.51378
H         40.22172        75.34713         0.45703
H         42.78902        75.33182         0.34606
H         45.24229        75.31066         0.08052
H         47.69887        75.29247         0.05524
H         50.16658        75.28467         0.06519
H         52.61770        75.26692        -0.14112
H         55.07016        75.27597        -0.18741
H         57.50029        75.25796        -0.42321
H         59.94736        75.20362        -0.83924
H         62.34515        75.13477        -1.29376
H         64.61538        74.95109        -2.15373
H         66.82968        74.80565        -3.10122
H         21.92301        69.39163         0.03135
H         20.71664        71.55333         0.10755
H         20.74993        74.02736         0.30529
H         24.84746        65.17156         0.88456
H         23.12781        67.24568        -0.02636
H         26.83746        60.76404        -0.41260
H         25.60292        62.90965        -0.51445
H         29.35272        56.46101        -0.58185
H         28.09597        58.60024        -0.37312
H         31.91009        52.18741        -0.81751
H         30.59947        54.33344        -0.66831
H         34.36208        47.97527        -0.86300
H         33.13980        50.10434        -0.83984
H         36.88379        43.75792        -1.30031
H         35.59172        45.88163        -1.06554
H         39.52700        39.59161        -1.75713
H         38.21721        41.67289        -1.56455
H         42.13637        35.48882        -2.45807
H         40.78750        37.56615        -2.02538
H         45.48682        32.05764        -2.23936
H         43.37973        33.34459        -2.54874
H         47.52460        33.15876        -1.32389
H         48.71059        35.24276        -0.64214
H         49.89006        37.29659         0.00542
H         51.07045        39.49121         0.09830
H         52.07670        41.52388        -0.56290
H         53.12927        44.32388        -0.67938
H         54.91309        45.88649         0.84002
H         56.06982        47.99175         0.76412
H         57.29600        50.10187         0.57670
H         58.53303        52.24344         0.46628
H         59.73100        54.38280         0.48718
H         60.95344        56.49807         0.54701
H         62.15471        58.60922         0.80356
H         62.69345        60.84746        -1.06753
H         64.66842        62.89818        -0.27116
H         65.86477        65.05314        -0.66129
H         66.99854        67.14959        -1.25139
H         68.12311        69.22383        -1.87906
H         69.19180        71.21785        -2.74202
H         68.95094        73.56897        -3.48828
