         410
 CSIRO Nanostructure Databank - Neutral Graphene Oxide Data Set
C         27.81569        27.17316        -0.44086
C         27.74071        28.62102        -0.45252
C         26.58151        29.33133        -0.27748
C         27.73623        31.50054        -0.07659
C         26.58515        30.76001        -0.12672
C         27.73857        32.95689         0.24102
C         26.52176        33.77896         0.17508
C         27.81859        35.88728         0.22139
C         26.57555        35.13465         0.21055
C         27.82058        37.33847         0.20081
C         26.60903        38.07144         0.23580
C         27.80958        40.16649        -0.05878
C         26.60837        39.44729         0.11169
C         27.76832        41.61891        -0.33787
C         26.59083        42.42044         0.04507
C         27.90392        44.49540        -0.00586
C         26.65830        43.76741         0.14003
C         27.92324        45.89160         0.17694
C         30.16906        27.14718        -1.31850
C         28.97363        26.50789        -0.64867
C         30.21249        28.69197        -1.12210
C         29.03810        29.33062        -0.43127
C         30.29113        31.57449        -0.46680
C         29.05036        30.81578        -0.17065
C         30.26716        33.08825        -0.44608
C         29.04315        33.71540         0.18711
C         30.28336        35.89813         0.09938
C         29.02605        35.19782         0.13838
C         30.29329        37.32487         0.12518
C         29.04792        38.05512         0.12452
C         30.29961        40.22767        -0.04622
C         29.04883        39.48607        -0.00712
C         30.34654        41.60114        -0.22508
C         29.09908        42.35376        -0.46730
C         30.35121        44.50271        -0.27611
C         29.11885        43.80798        -0.22957
C         30.33121        45.91374        -0.15160
C         29.12016        46.58749         0.08590
C         32.80586        24.65243         0.06051
C         31.61664        25.19019        -0.31245
C         32.83171        27.29356        -1.00188
C         31.53867        26.47368        -1.02651
C         32.76875        28.75469        -1.05395
C         31.49849        29.48058        -1.11259
C         32.72639        31.70022        -0.78494
C         31.47086        30.93670        -0.75154
C         32.75744        32.99394        -0.32831
C         31.51117        33.65627         0.24416
C         32.71875        35.89166         0.18450
C         31.51578        35.18145         0.14306
C         32.72935        37.31300         0.12817
C         31.52912        38.02532         0.13453
C         32.83136        40.22005         0.00735
C         31.55131        39.51421         0.40146
C         32.83565        41.63375        -0.14879
C         31.59491        42.34897        -0.22208
C         32.85192        44.44505        -0.55712
C         31.60799        43.75607        -0.39151
C         32.82288        45.91287        -0.78243
C         31.55909        46.68209        -0.46457
C         32.90099        48.72599        -0.01562
C         31.70220        48.07608        -0.01199
C         35.34899        23.32967         0.67483
C         35.31108        24.69068         0.30010
C         34.07241        25.34170        -0.08254
C         35.30545        27.43546        -0.52078
C         34.07836        26.67900        -0.48647
C         35.30937        28.80564        -0.90218
C         34.02440        29.48693        -1.18833
C         35.29168        31.72614        -1.05389
C         33.98243        30.99974        -1.18517
C         35.31044        33.13063        -0.49808
C         34.02139        33.68897        -0.00710
C         35.29762        35.89596         0.38700
C         33.99334        35.14810         0.34220
C         35.30750        37.31207        -0.07359
C         34.00063        38.04155        -0.11212
C         35.29191        40.19091        -0.12334
C         34.03111        39.51334        -0.04961
C         35.30068        41.59284        -0.25581
C         34.08129        42.32152        -0.30459
C         35.36114        44.44741        -0.51808
C         34.08517        43.75238        -0.49716
C         35.41420        45.91211        -0.69214
C         34.11074        46.68674        -0.79805
C         35.36905        48.78488        -0.32704
C         34.12673        48.10115        -0.41121
C         35.42393        50.20480        -0.23399
C         37.72810        23.47229         1.16886
C         36.52844        22.73976         1.10356
C         37.75534        24.80822         0.70056
C         36.53472        25.42122         0.27106
C         37.76750        27.47554        -0.32252
C         36.53139        26.78580        -0.16864
C         37.75062        28.81199        -0.77461
C         36.53154        29.52442        -0.96063
C         37.74038        31.70327        -0.85640
C         36.55756        30.97722        -1.02052
C         37.76576        33.08274        -0.40968
C         36.58477        33.72851        -0.07185
C         37.83481        35.92323         0.06120
C         36.59921        35.15231         0.32074
C         37.82086        37.32377         0.08286
C         36.57167        38.07268         0.05760
C         37.80561        40.20198         0.34709
C         36.54131        39.45053        -0.00171
C         37.84144        41.62173        -0.12695
C         36.59244        42.28795        -0.62159
C         37.81639        44.47456        -0.21254
C         36.57082        43.77514        -0.37529
C         37.82132        45.90286        -0.08160
C         36.62769        46.63877        -0.28780
C         37.82542        48.75688         0.05366
C         36.60912        48.05154        -0.23350
C         37.84147        50.18560         0.12293
C         36.61456        50.87591        -0.04805
C         40.22215        20.85490         2.32092
C         39.01702        21.47191         2.15202
C         40.20673        23.71232         1.81197
C         38.92325        22.91602         1.84970
C         40.24022        24.93646         0.98238
C         39.01439        25.52186         0.57439
C         40.26291        27.46732        -0.26388
C         39.02382        26.81623        -0.02723
C         40.28066        28.81911        -0.74727
C         39.01746        29.47284        -1.06540
C         40.27838        31.68859        -0.76237
C         39.02035        31.03722        -1.10443
C         40.24484        33.04011        -0.31671
C         39.04091        33.75854        -0.20201
C         40.27379        35.91231        -0.02571
C         39.05762        35.18980        -0.01596
C         40.29613        37.32749        -0.10855
C         39.06293        38.04723        -0.02379
C         40.29236        40.15887        -0.11136
C         39.07380        39.45517         0.01498
C         40.30436        41.60147        -0.07328
C         39.04429        42.31139        -0.12061
C         40.27502        44.45189         0.06420
C         39.04665        43.76261        -0.13817
C         40.27960        45.86739         0.28933
C         39.03508        46.60039         0.21517
C         40.19164        48.72303         0.79458
C         39.00578        48.00767         0.31746
C         40.26548        50.18144         0.64731
C         39.08436        50.90088         0.35030
C         40.33791        52.98337         0.56508
C         39.15521        52.32381         0.31315
C         42.68311        20.85626         2.31859
C         41.47142        21.54407         2.23667
C         42.75164        23.59252         1.54200
C         41.52223        23.05880         2.23974
C         42.74685        24.85874         0.90730
C         41.48704        25.52930         0.64915
C         42.74452        27.40882        -0.34107
C         41.50190        26.80360         0.01577
C         42.73329        28.75250        -0.94597
C         41.47476        29.53361        -0.88763
C         42.75081        31.66977        -0.70913
C         41.48973        30.96494        -0.86427
C         42.77052        32.97037        -0.25777
C         41.51559        33.66247         0.06276
C         42.79357        35.93316        -0.00255
C         41.53424        35.20915         0.18235
C         42.79930        37.30026        -0.25465
C         41.53619        38.03527        -0.24663
C         42.73212        40.20049        -0.62063
C         41.51043        39.43897        -0.29493
C         42.77909        41.63837        -0.29435
C         41.52651        42.31467        -0.09566
C         42.75351        44.44002         0.14537
C         41.51852        43.74219         0.04942
C         42.75544        45.85254         0.38110
C         41.50567        46.52970         0.50451
C         42.76248        48.69374         0.87507
C         41.50480        47.94043         0.89925
C         42.74360        50.10877         0.99205
C         41.50538        50.84212         0.85143
C         42.77179        52.94240         1.03171
C         41.53674        52.26565         0.82394
C         43.90335        21.52290         2.17066
C         45.21447        23.52384         1.43365
C         43.95664        22.87730         1.73727
C         45.22264        24.78550         0.77153
C         43.97481        25.44758         0.47572
C         45.22750        27.40309        -0.46507
C         43.97243        26.74998        -0.13208
C         45.30157        28.74504        -0.81875
C         44.04445        29.46975        -1.13806
C         45.31565        31.65416        -0.84911
C         44.01659        30.97031        -1.08195
C         45.33130        32.99566        -0.18296
C         44.03046        33.67357         0.11510
C         45.33915        35.92682         0.07400
C         44.03128        35.17782         0.25873
C         45.26625        37.33132        -0.36643
C         44.06095        37.99562        -0.47053
C         45.28702        40.22287        -0.64039
C         44.04723        39.44842        -0.79130
C         45.27569        41.62119        -0.41823
C         44.00012        42.32602        -0.24620
C         45.21117        44.47202         0.07463
C         43.99767        43.74427         0.00737
C         45.22514        45.85208         0.40696
C         43.98624        46.55206         0.55862
C         45.18961        48.67704         1.06622
C         43.97692        47.97802         0.80868
C         45.20079        50.07263         1.24358
C         43.97329        50.81613         1.14215
C         43.94372        52.24215         1.19610
C         47.64102        23.59644         1.59197
C         46.44530        22.94795         1.82609
C         47.68184        24.81420         0.86973
C         46.47142        25.37498         0.41426
C         47.78782        27.22328        -0.85352
C         46.46646        26.59461        -0.43030
C         47.79461        28.71678        -1.02808
C         46.57946        29.43453        -0.93263
C         47.75326        31.62441        -0.75430
C         46.58524        30.88220        -0.82993
C         47.78557        33.06398        -0.54407
C         46.57810        33.78306        -0.32506
C         47.81123        35.89358        -0.31041
C         46.58574        35.17377        -0.20777
C         47.81463        37.31712        -0.43908
C         46.53645        37.98649        -0.73703
C         47.82984        40.20476        -0.65453
C         46.55059        39.51666        -0.85882
C         47.80944        41.70582        -0.81628
C         46.49468        42.33416        -0.38743
C         47.79122        44.52630         0.00014
C         46.47403        43.79154        -0.26169
C         47.71290        45.86853         0.61387
C         46.47687        46.51461         0.70429
C         47.72858        48.63026         1.50926
C         46.41481        47.88062         1.26018
C         47.65594        50.09870         1.47040
C         46.47013        50.75135         1.41065
C         50.18800        25.00201         1.12791
C         48.96773        25.44783         0.56200
C         50.29181        26.87815        -0.82887
C         49.01919        26.51270        -0.36629
C         50.28060        28.93410        -1.41718
C         49.01558        29.47164        -1.15335
C         50.33977        31.65250        -0.85273
C         49.00151        30.93335        -1.07474
C         50.26291        33.01436        -0.26692
C         49.00756        33.76573        -0.42343
C         50.28634        35.90459        -0.27221
C         49.03888        35.17599        -0.30046
C         50.26679        37.33153        -0.34658
C         49.01853        38.03781        -0.44544
C         50.27032        40.20175        -0.36431
C         49.00929        39.49421        -0.51631
C         50.26170        41.62550        -0.18607
C         49.04210        42.36657        -0.22760
C         50.25337        44.36834         0.49429
C         49.04161        43.72423         0.10710
C         50.20651        45.76847         0.98856
C         48.94479        46.53362         0.96982
C         50.22576        48.62898         1.17233
C         48.98516        47.90537         1.23868
C         51.41414        25.59311         0.82587
C         52.73463        27.32740        -0.50983
C         51.50481        26.56961        -0.18865
C         52.71893        28.68555        -0.82257
C         51.52201        29.51689        -0.98846
C         52.80386        31.53075        -0.12064
C         51.55473        30.86888        -0.66801
C         52.81192        33.03033        -0.32498
C         51.56660        33.76095        -0.09435
C         52.75246        35.91363        -0.38698
C         51.52769        35.22178        -0.23324
C         52.73483        37.34462        -0.41393
C         51.50024        38.04548        -0.36969
C         52.73014        40.19901        -0.26840
C         51.48546        39.48901        -0.33213
C         52.73116        41.59358        -0.05753
C         51.49054        42.30658         0.06352
C         52.78547        44.36495         0.77763
C         51.47455        43.69045         0.40038
C         52.75478        45.86418         0.58634
C         51.53203        46.55910         1.02433
C         51.42385        48.01707         0.97654
C         55.21318        27.26625        -0.40993
C         54.00384        26.66133        -0.27887
C         55.33306        28.65967        -0.85192
C         53.98861        29.43830        -0.97454
C         55.24674        31.56367        -0.70778
C         54.04073        30.86971        -0.67757
C         55.25018        33.02309        -0.63520
C         54.00388        33.73912        -0.50451
C         55.20998        35.90074        -0.63735
C         53.99060        35.18854        -0.50511
C         55.20325        37.35443        -0.62020
C         53.97760        38.06340        -0.49240
C         55.19609        40.20986        -0.51786
C         53.97308        39.48946        -0.42031
C         55.19005        41.65102        -0.42595
C         53.97793        42.32302        -0.09013
C         55.14178        44.47545        -0.16087
C         53.97881        43.71643         0.12363
C         55.08921        45.89399        -0.11932
C         53.89071        46.55448         0.19074
C         56.52453        29.46010        -0.56967
C         56.48965        30.81774        -0.66606
C         56.42928        33.77386        -0.76533
C         56.41325        35.16544        -0.76876
C         56.40344        38.09965        -0.72327
C         56.39951        39.48012        -0.68512
C         56.36334        42.42456        -0.64065
C         56.33231        43.79849        -0.55590
O         50.81697        33.16988         1.08157
O         47.22352        44.48863        -1.36216
O         28.33453        41.95483        -1.65287
O         54.74143        28.99173        -2.14277
O         44.77547        32.97841         1.17573
O         31.95615        46.39580        -1.86022
O         43.24440        39.84767        -1.95778
O         44.70673        31.65148        -2.19109
O         39.04554        30.22947        -2.30712
O         47.01403        26.42879        -1.79859
O         39.30371        23.82068         2.97183
O         33.99896        34.11930         1.39879
O         28.57855        33.18141         1.44791
O         32.37217        26.55554        -2.22321
O         46.51455        38.63493        -2.04403
O         41.51957        34.32884         1.35878
O         34.89958        46.37522        -1.99513
O         30.63519        29.32395        -2.36069
O         33.96760        30.29955        -2.46153
O         44.78001        35.67588         1.41004
O         50.94583        45.95775         2.24383
O         35.29876        32.89028        -1.94955
O         43.35944        28.86778        -2.28250
O         49.73994        31.58283        -2.18143
O         50.35218        27.66329        -1.98782
O         46.97138        48.02152         2.60964
O         29.33007        29.83337         0.91333
O         34.63727        37.50829        -1.35683
O         40.68601        48.22810         2.08696
O         36.01773        35.60688         1.61635
O         47.89521        41.95392        -2.26396
H         47.73685        42.92255        -2.38462
O         31.43845        33.29696         1.63767
H         32.28270        33.59035         2.05648
O         52.83131        31.30191         1.33484
H         52.11824        31.87573         1.70936
O         41.73146        23.42064         3.64704
H         40.82934        23.48974         4.04227
O         31.53640        39.61438         1.87841
H         30.72235        39.16609         2.19356
O         30.25248        33.53171        -1.82622
H         30.98185        33.08524        -2.30716
O         29.90185        26.91951        -2.71807
H         30.67323        27.28127        -3.21241
O         37.78349        40.29602         1.82968
H         37.83023        39.38105         2.18208
O         36.67454        42.16486        -2.09669
H         35.94153        42.69488        -2.47872
O         52.95864        44.13355         2.22255
H         52.24713        44.65809         2.66724
H         26.91139        26.61793        -0.14715
H         25.61735        28.80414        -0.24204
H         25.61146        31.25819        -0.01659
H         25.54615        33.28311         0.06761
H         25.62619        35.68511         0.16868
H         25.64614        37.55431         0.32969
H         25.64611        39.97567         0.09781
H         25.64290        41.91119         0.26808
H         25.76015        44.34461         0.40537
H         26.98225        46.42934         0.35906
H         28.96058        25.40987        -0.59018
H         29.10816        47.68196         0.17269
H         32.79348        23.67572         0.56271
H         30.69014        24.65509        -0.06254
H         32.93366        49.76109         0.35233
H         30.82217        48.59397         0.39299
H         34.43691        22.71984         0.65633
H         34.50166        50.78952        -0.35073
H         36.50554        21.69049         1.42605
H         36.59332        51.97292        -0.00918
H         40.24862        19.76834         2.49794
H         38.09622        20.87597         2.21054
H         40.37013        54.08226         0.54363
H         38.25772        52.91432         0.08714
H         42.67735        19.76768         2.48035
H         42.78089        54.04186         1.04268
H         44.83060        20.94443         2.27427
H         44.87387        52.80597         1.34359
H         48.57198        23.13219         1.94184
H         46.45988        21.98997         2.36182
H         48.58302        50.68734         1.49831
H         46.48501        51.84907         1.42645
H         50.17490        24.20593         1.88389
H         50.19927        49.72593         1.21056
H         52.31022        25.28113         1.38027
H         52.32363        48.62403         0.80920
H         56.13009        26.73004        -0.12211
H         53.97096        25.61253         0.05002
H         55.98353        46.47698        -0.37876
H         53.87461        47.65256         0.13601
H         57.46067        28.94470        -0.30838
H         57.42592        31.37413        -0.52031
H         57.39701        33.26811        -0.88179
H         57.37040        35.69077        -0.88155
H         57.36648        37.58432        -0.83217
H         57.35812        40.00970        -0.76247
H         57.30451        41.93087        -0.91676
H         57.23480        44.38801        -0.77185
