         576
 CSIRO Nanostructure Databank - Neutral Graphene Oxide Data Set
C          6.21037        18.99402         1.74941
C          6.15869        20.35962         1.74977
C          5.30791        21.07507         2.69708
C          5.97054        23.33075         1.85579
C          5.32541        22.41573         2.87308
C          6.29288        24.73957         2.27978
C          8.50127        14.62351         0.89897
C          8.46203        16.08055         0.80535
C          7.28744        16.82525         1.11162
C          8.39042        18.95538         0.62116
C          7.29182        18.25244         1.11269
C          8.42992        20.45618         0.45530
C          7.15823        21.14897         0.97619
C          8.50989        23.29084         1.28272
C          7.16542        22.62992         1.18209
C          8.56243        24.76796         1.28451
C          7.38335        25.44818         1.82996
C          8.59352        27.59214         1.66851
C          7.43354        26.88280         1.94031
C          8.60704        29.00536         1.63585
C         10.90389        10.28821         0.40099
C         10.84824        11.72241         0.28404
C          9.70922        12.44952         0.64176
C         10.94786        14.60479         0.56861
C          9.65542        13.88673         0.70120
C         10.95478        16.13424         0.59775
C          9.60847        16.77498         0.40860
C         10.87032        18.98627         0.12843
C          9.54700        18.22556         0.00319
C         10.92203        20.34789         0.35180
C          9.75472        20.97635         1.09740
C         11.02137        23.24545         0.76969
C          9.79763        22.50896         1.19401
C         10.98858        24.67474         0.77107
C          9.76944        25.40009         1.13911
C         10.98921        27.60484         0.86850
C          9.90345        26.84076         1.57979
C         10.97765        29.01117         0.94648
C          9.77920        29.73688         1.34423
C         10.96373        31.89165         1.08581
C          9.78751        31.14994         1.35010
C         11.00070        33.32074         1.10250
C         13.29809         5.92797         0.72752
C         12.86714         7.15426         0.08381
C         12.04079         8.15504         0.53054
C         13.15368        10.21646        -0.63667
C         11.98645         9.51976         0.01020
C         13.22384        11.70274        -0.45787
C         12.07272        12.38514        -0.12048
C         13.22392        14.56696        -0.64507
C         12.13136        13.85081         0.06600
C         13.19273        16.05259        -0.81112
C         11.93548        16.82144        -0.41597
C         13.26970        18.96007        -0.70598
C         12.19428        18.25770         0.07542
C         13.16438        20.46164        -0.86127
C         12.10726        21.10687         0.05082
C         13.41079        23.22132         0.04190
C         12.14546        22.49250         0.28764
C         13.37047        24.73549         0.06242
C         12.11080        25.44782         0.35787
C         13.25907        27.64443        -0.05749
C         12.10754        26.88688         0.35678
C         13.28292        29.02610         0.13928
C         12.15242        29.74957         0.62679
C         13.37863        31.92005         0.66223
C         12.16914        31.17789         0.77893
C         13.42259        33.30444         0.80481
C         12.19202        34.03639         0.93431
C         13.39654        36.20674         0.92185
C         12.21957        35.49386         0.85303
C         13.50520        37.66423         0.85575
C         15.76181         6.03266         0.04993
C         14.55365         5.39847         0.57282
C         15.76386         7.40886        -0.41613
C         14.63330         8.06706        -0.82551
C         15.71042        10.30525        -0.57768
C         14.48513         9.52581        -0.93885
C         15.73292        11.75252        -0.81995
C         14.46518        12.43713        -0.76670
C         15.62286        14.59004        -1.31867
C         14.47405        13.82650        -0.83681
C         15.64188        16.07337        -1.24655
C         14.45843        16.79624        -1.00651
C         15.60655        18.97121        -1.48436
C         14.40137        18.24453        -1.02663
C         15.67277        20.43029        -1.20904
C         14.53209        21.13136        -0.84360
C         15.70832        23.29310        -0.92328
C         14.56803        22.55716        -0.61406
C         15.74144        24.73301        -0.85066
C         14.45509        25.44487        -0.67201
C         15.74808        27.62308        -0.69372
C         14.42480        26.95781        -0.68915
C         15.76101        29.09387        -0.57304
C         14.49318        29.80594        -0.20307
C         15.92778        31.85230         0.38023
C         14.62385        31.14562         0.45328
C         15.99740        33.29618         0.63947
C         14.70104        34.08942         0.55563
C         15.66078        36.18142         1.73328
C         14.64221        35.48375         1.16479
C         15.81647        37.66968         1.84258
C         14.63445        38.34006         1.17532
C         18.26438         6.05818         0.13336
C         16.98284         5.39545         0.24971
C         18.29888         7.46900        -0.12822
C         17.07151         8.12051        -0.69380
C         18.25429        10.35950        -0.42967
C         16.99879         9.58961        -0.35909
C         18.21799        11.74922        -0.64034
C         16.95341        12.41875        -0.89041
C         18.20024        14.61882        -1.14509
C         16.97830        13.82579        -1.30956
C         18.12695        16.01980        -1.27418
C         16.90201        16.72898        -1.40185
C         18.17841        18.95331        -1.69817
C         16.88599        18.19171        -1.66569
C         18.15255        20.42735        -1.52723
C         16.96318        21.09535        -1.33645
C         18.20176        23.34070        -1.49215
C         16.91374        22.57805        -1.40426
C         18.19322        24.78851        -1.18336
C         16.91957        25.46969        -0.98778
C         18.24845        27.52125        -0.32287
C         16.91833        26.90657        -0.76378
C         18.29835        29.03892        -0.32992
C         17.04149        29.80076        -0.41425
C         18.33462        31.88549        -0.36313
C         17.10836        31.15067        -0.16586
C         18.37660        33.22225        -0.08159
C         17.24801        33.87217         0.54962
C         18.39369        36.08530         0.55402
C         17.50857        35.18964         1.06867
C         18.37465        37.48814         0.99784
C         17.22276        38.15448         1.41498
C         20.71668         6.07126         0.32727
C         19.46841         5.38530         0.36888
C         20.71916         7.50151         0.15393
C         19.47937         8.20430        -0.04717
C         20.66427        10.40622        -0.14328
C         19.47906         9.66439        -0.22991
C         20.68501        11.82031        -0.41716
C         19.44373        12.49350        -0.67098
C         20.67591        14.58975        -0.99936
C         19.43973        13.90883        -0.90416
C         20.65277        16.02754        -1.31923
C         19.39090        16.78749        -0.95691
C         20.69812        18.93183        -1.10222
C         19.45433        18.20584        -1.48475
C         20.60048        20.40640        -0.78468
C         19.51311        21.11323        -1.65429
C         20.63356        23.29208        -1.12926
C         19.48604        22.61112        -1.36332
C         20.69601        24.79085        -0.94374
C         19.37936        25.46145        -1.21063
C         20.68605        27.63823        -1.36038
C         19.39262        26.93377        -1.13643
C         20.88230        28.99175        -0.68829
C         19.58544        29.77509        -0.53577
C         20.79626        31.98079        -0.89602
C         19.49109        31.21010        -1.06791
C         20.79481        33.35895        -0.68042
C         19.45142        34.07111        -0.73454
C         20.80293        36.25180        -0.16862
C         19.48153        35.54704        -0.30512
C         20.84124        37.55350         0.55352
C         19.64804        38.16834         0.96112
C         23.17760         6.07405         0.40681
C         21.94831         5.39000         0.46756
C         23.17142         7.50247         0.25771
C         21.93957         8.19997         0.13661
C         23.19929        10.43962         0.13171
C         21.90918         9.68323         0.17574
C         23.21869        11.97106         0.00343
C         21.90863        12.55512        -0.48490
C         23.17880        14.68383        -0.87132
C         21.91672        13.92800        -0.81585
C         23.19582        16.06483        -1.00393
C         21.94486        16.80060        -1.28332
C         23.09918        18.95569        -0.48850
C         21.86750        18.25461        -0.99910
C         23.10997        20.40595        -0.94850
C         21.94244        21.09217        -0.97568
C         23.11283        23.28020        -1.33537
C         21.91521        22.59414        -0.76998
C         23.11185        24.64376        -1.81833
C         21.89425        25.47428        -1.63342
C         23.16248        27.61703        -1.97735
C         21.91924        26.84067        -1.67889
C         23.21781        29.01529        -1.39888
C         21.92829        29.82886        -1.50517
C         23.23606        31.93739        -0.87350
C         22.02380        31.26219        -0.99339
C         23.26288        33.35608        -0.69937
C         22.02730        34.07922        -0.59359
C         23.28467        36.13369        -0.11463
C         22.05955        35.47988        -0.32011
C         23.31591        37.50787         0.34834
C         22.10773        38.16188         0.70805
C         25.64141         6.06713         0.28362
C         24.44249         5.39505         0.43818
C         25.63824         7.49149         0.10431
C         24.41943         8.18597         0.13634
C         25.66021        10.30297        -0.60286
C         24.38026         9.61142        -0.24983
C         25.64966        11.78680        -0.85791
C         24.41783        12.56947        -0.70545
C         25.69563        14.69761        -0.93347
C         24.43975        13.95103        -0.83690
C         25.68603        16.13153        -0.91331
C         24.43043        16.83703        -0.89034
C         25.65263        18.97503        -0.35661
C         24.39678        18.22310        -0.73985
C         25.67238        20.42773        -0.79561
C         24.41608        21.07131        -1.33755
C         25.61887        23.34019        -0.93284
C         24.36694        22.56641        -1.06936
C         25.69416        24.77537        -1.28996
C         24.51090        25.39093        -1.92728
C         25.78805        27.62797        -1.80091
C         24.48370        26.88348        -2.03370
C         25.78400        29.11375        -1.53311
C         24.49418        29.73057        -1.11830
C         25.77416        31.93698        -0.98289
C         24.52137        31.18266        -0.61457
C         25.76346        33.33999        -0.88807
C         24.50592        34.05036        -0.66502
C         25.75134        36.14409        -0.27318
C         24.52199        35.44009        -0.36470
C         25.77779        37.48066         0.18895
C         24.57009        38.13859         0.50828
C         28.19659         6.10991         0.46818
C         26.94604         5.29676         0.16609
C         28.14273         7.55237         0.32337
C         26.89783         8.22264         0.01410
C         28.06531        10.40518         0.11205
C         26.89835         9.58754        -0.26592
C         28.07558        11.88952        -0.13329
C         26.94593        12.55244        -0.85116
C         28.21313        14.69504        -1.00543
C         26.91377        14.01928        -0.83716
C         28.22523        16.18084        -1.11206
C         26.92103        16.88583        -0.91183
C         28.20087        19.04584        -0.88120
C         26.92376        18.24763        -0.71371
C         28.09265        20.45311        -0.36117
C         26.84100        21.13975        -0.67630
C         27.94333        23.29564        -0.24776
C         26.88276        22.59710        -0.73521
C         27.89663        24.80813        -0.12196
C         26.83847        25.47102        -0.98988
C         28.15138        27.56904        -1.07239
C         26.98589        26.88719        -1.31535
C         28.28743        29.04685        -1.43455
C         27.02082        29.80689        -1.15792
C         28.23932        31.96382        -1.06139
C         27.01190        31.22248        -1.05057
C         28.21690        33.36475        -1.09172
C         26.98998        34.05374        -0.97739
C         28.22227        35.94118         0.10892
C         27.03852        35.54778        -0.80303
C         28.24943        37.45949         0.22513
C         27.06388        38.14844         0.30102
C         30.57352         6.30207         1.21232
C         29.37493         5.48515         0.78514
C         30.61446         7.61394         0.47045
C         29.35205         8.29051         0.35460
C         30.56143        10.42098         0.25486
C         29.35813         9.71651         0.25070
C         30.61274        11.88421         0.33363
C         29.34898        12.65131         0.04591
C         30.72383        14.74580        -0.24936
C         29.49883        13.98969        -0.59355
C         30.71668        16.13470        -0.32004
C         29.52711        16.89531        -0.78097
C         30.51846        18.96092         0.14263
C         29.44443        18.31959        -0.41101
C         30.33269        20.34278         0.76038
C         29.16404        21.11021         0.15966
C         30.30702        23.36437         0.68168
C         29.07151        22.57390         0.37380
C         30.34836        24.80256         0.28908
C         29.27497        25.43142        -0.25286
C         30.45571        27.63609        -0.09118
C         29.43662        26.80835        -0.85396
C         30.57493        29.06052        -0.45847
C         29.48499        29.75480        -0.84816
C         30.79717        31.86582        -1.31743
C         29.51923        31.26289        -0.69352
C         30.77414        33.37892        -1.15138
C         29.49727        34.17617        -1.28365
C         30.78708        35.94849         0.30287
C         29.53466        35.36173        -0.34810
C         30.71923        37.45383         0.04144
C         29.51771        38.12027         0.14353
C         33.10796         6.13452         1.68797
C         31.87209         5.56789         1.48952
C         33.54862         7.35877         1.07427
C         31.75565         8.29932         0.09206
C         33.00320        10.45427        -0.03433
C         31.79467         9.73034         0.03070
C         33.08669        11.85777         0.25537
C         31.90237        12.58007         0.27231
C         33.07526        14.69758         0.54749
C         31.90440        14.03427         0.25353
C         33.19606        16.14669         0.13938
C         31.87057        16.88078         0.08769
C         33.00676        19.01432         0.52908
C         31.79597        18.26179         0.29810
C         32.96512        20.48075         0.67618
C         31.63973        21.15371         0.81923
C         32.90129        23.36434         0.51868
C         31.60555        22.62523         0.52614
C         32.87413        24.80600         0.89132
C         31.58006        25.51778         0.71295
C         32.88163        27.72765         0.83108
C         31.59857        27.00073         0.61291
C         32.90026        29.09178         0.64702
C         31.86189        29.73382        -0.19637
C         33.07496        31.93140         0.06958
C         32.01394        31.15245        -0.62465
C         33.04988        33.37404        -0.25108
C         31.94073        34.04166        -0.98645
C         33.36132        36.21596        -0.25048
C         32.14164        35.28341        -0.10596
C         33.12882        37.63091        -0.42754
C         31.90005        38.20094        -0.28946
C         34.47640         8.31831         1.54883
C         35.49728        10.70659         1.37246
C         34.75496         9.50535         0.86816
C         35.66280        11.88981         0.42682
C         34.33818        12.45605         0.87625
C         35.58068        14.71532         1.10669
C         34.22045        13.97512         1.25440
C         35.53914        16.23201         1.25230
C         34.27126        16.92270         0.86601
C         35.46806        19.12295         0.61950
C         34.24400        18.38819         0.63412
C         35.44444        20.54718         0.42690
C         34.20622        21.24166         0.42148
C         35.37034        23.41104         0.60693
C         34.20525        22.66598         0.56097
C         35.43589        24.83613         1.11091
C         34.12647        25.59122         0.99253
C         35.37993        27.65192         1.51811
C         34.09211        26.95654         1.10944
C         35.32574        29.18194         1.43374
C         34.06104        29.91397         1.06748
C         35.29225        32.14726         1.45546
C         34.10684        31.38315         0.77237
C         35.53149        33.64744         1.19136
C         34.98413        34.39704         0.20845
C         34.64967        35.82275         0.05961
C         36.78203        12.61879         0.21446
C         37.96698        14.92276         0.15632
C         36.78127        14.08372         0.46553
C         37.96391        16.24655         0.43729
C         36.84381        16.99624         1.11327
C         37.89795        19.18883         0.63346
C         36.71250        18.45000         0.70090
C         37.88245        20.60865         0.53767
C         36.66402        21.27890         0.37913
C         37.90247        23.50354         0.45593
C         36.63428        22.76103         0.10454
C         37.88281        24.87954         0.55224
C         36.57026        25.62501         0.39046
C         37.82003        27.76375         0.99146
C         36.61033        27.04512         0.89447
C         37.80171        29.18626         1.17975
C         36.60318        29.93907         1.30212
C         36.56458        31.32684         1.26131
C         38.94945        17.04843         1.26106
C         40.30412        19.27405         1.27810
C         39.21018        18.44108         0.66221
C         40.29615        20.63743         1.17971
C         39.11692        21.36337         0.70285
C         40.44172        23.48435         0.63873
C         39.12217        22.74797         0.62666
C         40.31369        24.95051         0.93342
C         39.11035        25.63351         0.80065
C         39.05388        27.05306         0.90287
C         41.41181        21.44318         1.67771
C         41.47570        22.77164         1.47377
O         16.78544        35.51138         2.22697
O         13.60270         9.92671        -2.01603
O         32.37308        20.87608         2.05139
O         32.20959        23.02700        -0.75322
O         16.23162        14.06981        -2.53602
O         12.00230        14.14517         1.51002
O         19.00506        18.45804        -2.83219
O         36.57787        14.15473         1.99924
O         25.95765        28.57254        -2.91432
O         32.67195        34.27448         0.89633
O         31.99693        25.04997         2.05149
O         32.94951         7.59853        -0.16980
O         34.42634        29.65141         2.49377
O         23.91985        24.74352        -3.06015
O         16.15395         9.92146         0.79187
O         29.08007        14.01349        -1.98961
O         34.57099        16.62954         2.26494
O         13.86337        23.99027         1.22684
O         24.80550         9.70672        -1.65312
O         14.89025        29.75065        -1.59987
O         26.43572        11.99517        -2.09810
O         37.85390        17.12573         2.26934
O         29.09142        16.65311        -2.18665
O         21.30429        16.40761        -2.55837
O         34.17596         9.74203        -0.39691
O         30.44223        27.54450         1.36954
O         29.41073        23.01755         1.76480
O         34.51962        11.57303         2.11165
O         13.48522         7.34930        -1.16482
O         29.81596        12.54966         1.40650
O         27.64786        11.36506         1.17289
O         14.03466        26.17111        -1.86831
O         19.08013        29.60451         0.82237
O         23.80404        27.35460        -3.23839
O         16.04725        18.56788        -2.82089
O         21.55390        29.88834        -2.82973
O         24.78839        23.01960         0.27780
O         23.82791        28.91470        -0.07668
O         15.47642        31.12261         1.64668
O          9.25253        22.87623         2.51448
O         12.83953        15.15863        -1.94578
O         19.96453        36.38275        -1.39817
O         17.43168        23.05127        -2.71108
O          6.69533        22.06993        -0.09075
O         19.66582        27.61156        -2.40549
O         34.32221        33.70099        -0.81826
O         22.62961        10.09378         1.43045
O         32.54746        30.10607        -1.50098
O         30.83307        31.59023        -2.72094
H         31.36922        30.76966        -2.84206
O         27.93889        35.37945         1.42066
H         28.76012        35.50547         1.95836
O          4.91556        23.53914         0.86657
H          5.05507        22.86884         0.15609
O         27.28491        36.18326        -2.08506
H         26.71086        35.76282        -2.75779
O         29.99002        26.62115        -2.19457
H         29.71840        27.40215        -2.73765
O         35.83468        24.75940         2.50236
H         35.04828        24.53714         3.04300
O         19.17305        31.13241        -2.46749
H         19.19141        32.04986        -2.82356
O         21.43032        28.74858         0.60994
H         20.75252        29.00240         1.27948
O          9.14887        18.23782        -1.42119
H          9.02200        19.18957        -1.66586
O         33.69756        16.09894        -1.25317
H         32.95822        15.79915        -1.82560
O         20.90701        25.07309         0.47699
H         21.43862        24.32603         0.86090
O         11.24116        16.46443         1.98727
H         11.77798        15.72073         2.35574
O         11.20018        16.98633        -1.63854
H         11.42119        16.23724        -2.23931
O         10.36944        26.75723         2.97687
H         11.16708        26.18554         2.98816
O         30.24945         6.73162         2.60773
H         29.90277         5.94713         3.08412
O         36.23270        25.67317        -1.02297
H         36.32766        24.75154        -1.38092
O         28.56687        29.04947        -2.88702
H         27.69136        28.88959        -3.33032
O         18.39390        27.07148         1.04504
H         18.85189        27.78418         1.54598
O         33.88776        14.02558         2.65015
H         34.70603        13.81273         3.15002
O         17.24788         8.08226        -2.15038
H         17.32470         7.14333        -2.42209
O         24.60597        31.11432         0.84597
H         24.06121        30.33701         1.11924
O         19.08087        34.06641        -2.15137
H         19.45349        34.89618        -2.53485
O         20.22409        20.54279         0.61548
H         20.80431        19.92680         1.12143
O         28.37247        19.23426        -2.32712
H         28.59036        18.34329        -2.70284
O         22.00624        22.68552         0.71135
H         21.31939        22.05915         1.05555
O         19.40120        16.93864         0.49927
H         19.40008        16.04313         0.89953
O          9.83175        20.43311         2.43124
H          9.64754        21.16911         3.06218
O         35.01149        32.16570         2.88016
H         34.81269        31.23769         3.15862
O         23.36687        12.49058         1.36741
H         22.89852        11.85480         1.96068
O         30.64784        35.76683         1.74675
H         31.21443        34.99860         1.99454
O         14.65508        34.36652        -0.89954
H         13.79802        34.80815        -1.08696
O         19.96820        20.97887        -3.01602
H         19.23985        21.25140        -3.61348
O         22.92208        19.03847         0.97323
H         23.81554        19.26092         1.34757
O         29.47116        34.66772        -2.66560
H         29.71383        33.91061        -3.24186
O         36.54450        22.89822        -1.38641
H         35.74851        22.39887        -1.67405
O         29.68845        31.51439         0.73950
H         28.87581        31.21929         1.20352
O          8.58470        20.76466        -0.95620
H          7.81210        21.31824        -1.22874
O         27.49106        25.09473         1.24999
H         28.04703        24.52980         1.83956
O         40.94554        23.42727        -0.75364
H         40.27125        23.85834        -1.32157
O         12.77925        18.30520         1.40770
H         12.07232        18.10480         2.06614
O         29.93331        20.07894         2.12923
H         30.74493        20.16455         2.68522
O         15.74298        38.03873         3.25589
H         16.36571        37.45072         3.73500
O         26.90696         4.11221         0.96801
H         26.75430         4.37757         1.89772
O         35.54152        27.37306         2.94597
H         34.93305        27.98652         3.41860
O         25.63386        19.05247         1.14072
H         25.82664        18.15241         1.48208
O         39.61601        18.17821        -0.71976
H         39.82918        19.03938        -1.13771
O         24.49917        20.96847        -2.79165
H         24.50397        20.01986        -3.03953
O         12.63717        20.70282        -2.21157
H         13.22069        20.23954        -2.85067
H          5.48392        18.42782         2.35241
H          4.70243        20.44913         3.37139
H          4.69151        22.86958         3.64934
H          5.46115        25.29882         2.73602
H          7.54604        14.09668         1.04614
H          6.38856        16.29631         1.46097
H          6.50891        27.42281         2.19535
H          7.66595        29.54906         1.81179
H         10.05934         9.78638         0.89820
H          8.79329        11.89279         0.89348
H          8.86072        31.68532         1.60639
H         10.05926        33.87014         1.25452
H         12.58499         5.39512         1.37618
H         11.42155         7.95862         1.41992
H         11.25972        36.02565         0.76903
H         12.63023        38.22084         0.48464
H         14.73643         4.43048         1.06896
H         14.65690        39.43621         1.08116
H         16.98478         4.35876         0.62128
H         17.36932        39.21952         1.66780
H         19.45874         4.30271         0.56540
H         19.70218        39.18867         1.37275
H         21.94373         4.29736         0.59755
H         22.16552        39.16677         1.15411
H         24.45272         4.29981         0.54566
H         24.60450        39.17322         0.88137
H         27.02717         4.94765        -0.90253
H         27.07479        39.24172         0.43562
H         29.39578         4.38969         0.89582
H         29.51811        39.21852         0.04582
H         33.83761         5.58278         2.30546
H         31.71583         4.57961         1.95734
H         34.00087        38.26858        -0.63514
H         31.78671        39.28620        -0.43191
H         34.94455         8.15699         2.53043
H         36.37757        10.45463         2.01284
H         36.01395        34.15457         2.04009
H         35.42897        36.59844         0.14091
H         37.76665        12.12265         0.19184
H         38.91862        14.39975        -0.03032
H         38.75947        29.72646         1.14377
H         37.51974        31.86990         1.18951
H         39.85618        16.52781         1.64648
H         41.19014        18.76291         1.68709
H         41.24110        25.52156         1.09562
H         39.99443        27.60889         1.03369
H         42.20498        20.92525         2.23829
H         42.33030        23.35420         1.84933
