         236
 CSIRO Nanostructure Databank - Neutral Graphene Oxide Data Set
C        -10.87739         0.73902        -1.19374
C        -10.10491         1.41969        -0.06309
C         -8.77480         0.70301         0.11934
C         -7.59862         1.36352         0.23490
C         -6.29571         0.58922         0.16001
C         -5.08358         1.35916         0.63865
C         -3.82192         0.63249         0.45744
C         -2.51270         1.33966         0.40196
C         -1.26159         0.58898         0.58288
C         -0.04229         1.34069         0.65322
C          1.16192         0.64918         0.41782
C          2.28547         1.47075        -0.18040
C          3.56997         0.67454        -0.34825
C          4.84934         1.40625        -0.34579
C          6.04917         0.60041        -0.68122
C          7.31708         1.32041        -0.99512
C          8.61638         0.64187        -0.69861
C          9.85636         1.32913        -1.13553
C         11.02407         0.49476        -1.29516
C         -9.94756         2.89838        -0.32664
C         -8.77663         3.59225        -0.12445
C         -7.57104         2.86892         0.44164
C         -6.27990         3.53093        -0.00317
C         -5.00985         2.74764         0.18079
C         -3.78563         3.52791         0.52265
C         -2.48985         2.79320         0.70327
C         -1.20599         3.52133         0.70320
C         -0.02091         2.78110         0.78318
C          1.29046         3.41400         1.22218
C          2.48252         2.83638         0.45407
C          3.68497         3.46844         0.35073
C          4.88748         2.75415        -0.10761
C          6.12867         3.52401        -0.40028
C          7.32818         2.81472        -0.95704
C          8.65408         3.49482        -0.98484
C          9.84310         2.70615        -1.22921
C         -8.66382         5.00403        -0.30284
C         -7.43796         5.71781        -0.15209
C         -6.21225         4.99632         0.01351
C         -4.95897         5.67053         0.01128
C         -3.71861         4.96801         0.26526
C         -2.48942         5.62450         0.47408
C         -1.27544         4.93971         0.72311
C         -0.09494         5.73170         1.24334
C          1.25808         4.96485         1.26397
C          2.57503         5.67608         1.03734
C          3.88926         4.86002         0.94322
C          5.02988         5.63264         0.29781
C          6.35888         4.89087         0.23505
C          7.46252         5.62115        -0.53255
C          8.64730         4.86862        -0.91526
C         -7.36884         7.13099        -0.28968
C         -6.13074         7.80280        -0.31486
C         -4.92619         7.07117        -0.17406
C         -3.57760         7.71525        -0.37313
C         -2.50935         7.13697         0.56449
C         -1.15691         7.77792         0.30857
C          0.00093         7.11696         0.61848
C          1.30106         7.88910         0.76427
C          2.56263         7.08041         0.55400
C          3.73578         7.71405         0.19715
C          4.99718         6.97984         0.13576
C          6.31706         7.73201         0.08307
C          7.39328         6.97098        -0.65345
C         -6.05062         9.24170        -0.47006
C         -4.85260         9.90780        -0.45674
C         -3.60109         9.22241        -0.32294
C         -2.38294         9.87869        -0.27831
C         -1.15202         9.18046        -0.08071
C          0.08142         9.83636        -0.25458
C          1.29548         9.19460         0.00818
C          2.52844         9.79856        -0.32136
C          3.73282         9.10991        -0.20448
C          4.98220         9.75870        -0.53555
C          6.17893         9.14461        -0.40240
C        -10.78670        -0.57500        -1.46397
C         -9.89866        -1.47080        -0.68186
C         -8.84342        -0.78441         0.15407
C         -7.63453        -1.57948         0.54402
C         -6.36022        -0.81368         0.75689
C         -5.05745        -1.57353         0.79678
C         -3.77506        -0.83787         0.68704
C         -2.54365        -1.56405         0.16288
C         -1.27485        -0.80187         0.49366
C         -0.04911        -1.51133         0.54326
C          1.17014        -0.77387         0.41128
C          2.38236        -1.51090         0.30981
C          3.61031        -0.81650        -0.10029
C          4.89765        -1.49371         0.10288
C          6.10908        -0.82054        -0.22985
C          7.30270        -1.52631        -0.36113
C          8.59810        -0.84072        -0.49410
C          9.82715        -1.62625        -0.75958
C         11.01082        -0.86424        -1.11719
C         -9.63944        -2.85681        -1.07110
C         -8.62293        -3.64755        -0.50997
C         -7.59098        -3.04049         0.29639
C         -6.35538        -3.72011         0.58603
C         -5.04409        -3.00581         0.30926
C         -3.77585        -3.73657         0.74169
C         -2.51280        -3.01468         0.60363
C         -1.30065        -3.65320         0.73574
C         -0.04384        -2.93875         0.60431
C          1.17583        -3.64451         0.59956
C          2.41115        -2.90575         0.50557
C          3.68915        -3.55369         0.62766
C          4.89320        -2.85274         0.49790
C          6.25444        -3.47275         0.78688
C          7.29158        -2.99061        -0.20538
C          8.59931        -3.76125        -0.30121
C          9.81998        -2.99171        -0.63753
C         -8.46781        -4.99918        -1.04440
C         -7.75126        -5.99244        -0.41922
C         -6.28344        -5.07702         0.79824
C         -5.04571        -5.84691         0.90266
C         -3.77936        -5.08414         1.00968
C         -2.51435        -5.88137         0.81844
C         -1.25673        -5.09784         1.17014
C          0.00703        -5.82465         0.77877
C          1.16528        -5.09573         0.58124
C          2.46370        -5.80234         0.45550
C          3.72384        -5.03005         0.66107
C          4.94973        -5.70485         1.19630
C          6.25261        -4.98346         1.02682
C          7.45889        -5.78909         0.66471
C          8.64392        -5.09564         0.28220
C         -7.13264        -7.13033        -1.06491
C         -5.89924        -7.68977        -0.78227
C         -4.90637        -7.22604         0.23485
C         -3.42873        -7.63233         0.06941
C         -2.52356        -7.33927         1.29315
C         -1.16930        -7.98856         1.01505
C         -0.03393        -7.28382         0.73327
C          1.22554        -7.97605         0.21779
C          2.45066        -7.25495         0.76564
C          3.58118        -7.83729         1.22942
C          4.91251        -7.20155         1.29715
C          6.16295        -7.98296         0.88780
C          7.36342        -7.17632         0.56118
C         -5.44927        -8.74170        -1.67999
C         -4.22741        -9.33120        -1.61257
C         -3.22614        -8.93952        -0.63576
C         -2.20818        -9.77366        -0.30345
C         -1.24086        -9.49036         0.84232
C          0.08203       -10.15741         0.56116
C          1.22899        -9.49684         0.32046
C          2.46577       -10.19320        -0.13617
C          3.65649        -9.92203         0.45510
C          5.02804       -10.15381         0.00822
C          6.08649        -9.33583         0.25170
O         -6.08380         0.31557        -1.26702
H         -5.81954         1.17992        -1.67385
O         -3.14150         7.35059        -1.72125
H         -3.82141         7.66245        -2.35466
O         -7.19140        -1.09995         1.89154
O         -3.16654         0.99506        -0.88866
O          3.46943        -0.24150        -1.48595
O          6.79326         4.79513         1.58407
O         -2.99129        -7.64919         2.59851
H         -2.42001        -7.17341         3.23873
O          1.35269         8.27015         2.19029
H          1.66901         7.47521         2.68162
O          5.76692        -7.80631         2.29719
O          1.81002         1.76952        -1.53235
H          2.11081         1.02517        -2.10548
O         -7.46079        -5.81037         0.96059
O          6.78076         7.77714         1.47080
H          6.88943         6.82987         1.75390
O          1.49054         2.95666         2.58593
H          2.16235         3.56193         2.98269
O          3.33681        -5.50508        -0.70428
O          4.30799         4.63042         2.31138
H          5.31752         4.60808         2.31241
O          1.25942        -7.73763        -1.22114
H          1.45163        -6.78925        -1.38303
O         -5.58742         2.97375        -1.18021
O          5.62978        -5.15664         2.35939
O         -4.99543        -2.96698        -1.14595
H         -4.13762        -2.53936        -1.42063
O         -4.24975        -1.29976         1.98668
O         -2.64918        -1.58686        -1.29702
H         -2.75428        -0.63734        -1.57526
O         -2.74028        -6.43658        -0.57965
O         -2.86744         7.47403         1.92301
H         -2.19065         7.05586         2.50815
O          2.01386         5.50538         2.39932
O          6.38080         3.48390        -1.85041
O         -1.27191        -5.09318         2.64503
H         -1.81301        -4.32999         2.94154
O         -0.47426         5.96298         2.64095
H          0.35498         5.97871         3.17326
O          6.54340         0.74017        -2.07879
O         -3.30675         3.15393         1.86539
O        -10.88925         1.28716         1.15148
H        -10.91450         0.31970         1.35593
O          6.69827        -2.86425         2.03201
H          6.26020        -3.35671         2.76400
O         -7.60198         3.07585         1.88284
H         -8.43184         2.68229         2.22779
O         -1.79765       -10.10230         2.03151
H         -2.48125        -9.49087         2.39664
O          7.53407        -3.74398        -1.40807
O        -10.05827        -1.29145         0.79201
O          8.74091         0.11500         0.65854
O         -5.25775        -7.10119         1.62751
O          3.57575        -9.16624         1.64941
H         11.94486        -1.42730        -1.26426
H         11.96968         0.98498        -1.57239
H         10.78016         3.24193        -1.44891
H          9.58213         5.42855        -1.07992
H          8.21192         7.53684        -1.12688
H          7.10424         9.69755        -0.62601
H          4.93354        10.80395        -0.87806
H          2.52866        10.82107        -0.72935
H          0.09270        10.85828        -0.66412
H         -2.34932        10.97444        -0.38460
H         -4.83936        11.00614        -0.52730
H         -6.98901         9.80716        -0.56721
H         -8.29799         7.70697        -0.41262
H         -9.56112         5.56647        -0.60411
H        -10.85394         3.44705        -0.62947
H        -11.57165         1.36173        -1.77917
H        -11.37992        -1.02000        -2.27807
H        -10.27806        -3.30070        -1.85012
H         -8.84054        -5.17701        -2.06473
H         -7.64037        -7.50306        -1.97021
H         -6.17065        -9.09132        -2.43383
H         -3.99043       -10.17021        -2.28315
H         -2.12458       -10.74574        -0.81567
H          0.06871       -11.25806         0.55546
H          2.40750       -10.83271        -1.03041
H          5.21260       -11.04711        -0.61031
H          7.04628        -9.65079        -0.19258
H          8.23084        -7.71905         0.15309
H          9.59663        -5.64656         0.25650
H         10.75578        -3.55362        -0.78446
