         490
 CSIRO Nanostructure Databank - Neutral Graphene Oxide Data Set
C         37.53235        50.03677         0.00422
C         36.33550        50.73482         0.07777
C         37.54652        52.82526        -0.04201
C         36.34058        52.13646         0.06642
C         40.08978        48.59666        -0.19894
C         40.02481        49.99401        -0.10676
C         38.77597        50.71447        -0.08434
C         40.03541        52.87117        -0.31928
C         38.77371        52.14322        -0.13278
C         40.04192        54.25304        -0.60727
C         42.55342        48.59060        -0.21674
C         41.29755        47.90556        -0.18812
C         42.55086        50.00910        -0.19507
C         41.29621        50.74863         0.19304
C         42.49257        52.89085        -0.44656
C         41.26845        52.18912        -0.25765
C         42.47285        54.29978        -0.64932
C         41.23986        54.94938        -0.75390
C         45.01826        45.74820        -0.34785
C         43.86690        46.43888        -0.17538
C         45.00343        48.60346        -0.50843
C         43.79183        47.87676        -0.33593
C         44.97343        50.01170        -0.53482
C         43.75336        50.73270        -0.39127
C         44.98500        52.89891        -0.48171
C         43.73975        52.17207        -0.46564
C         44.99831        54.33940        -0.45513
C         43.75288        55.07865        -0.87302
C         44.90818        57.14187        -0.08830
C         43.74863        56.47538        -0.30220
C         47.65661        44.32308        -0.64113
C         47.53895        45.69282        -0.45503
C         46.26882        46.41447        -0.86874
C         47.46765        48.56540        -0.35181
C         46.27611        47.89203        -0.54931
C         47.49250        50.01892        -0.38300
C         46.24594        50.74846        -0.83992
C         47.45144        52.89165        -0.05425
C         46.19110        52.19781        -0.45484
C         47.45966        54.37832        -0.26619
C         46.21389        55.06119        -0.33564
C         47.41687        57.22749        -0.15937
C         46.20221        56.50520        -0.23218
C         47.45469        58.65853        -0.05220
C         49.90151        44.23303         0.31459
C         48.84472        43.60977        -0.30464
C         49.81353        45.67788         0.52665
C         48.65670        46.42796         0.03251
C         49.93170        48.54052         0.07291
C         48.70163        47.84328        -0.05218
C         49.99388        49.98122        -0.38025
C         48.67180        50.69525        -0.29824
C         49.96786        52.91357        -0.49217
C         48.69082        52.16214        -0.51524
C         49.91269        54.39191        -0.38226
C         48.68957        55.08513        -0.28323
C         49.88440        57.26564        -0.26545
C         48.68149        56.54231        -0.24940
C         49.90669        58.68720        -0.08209
C         48.63537        59.35002        -0.00047
C         52.38623        41.43892         0.33614
C         51.21006        42.07118         0.53727
C         52.41772        44.27505         0.57513
C         51.12689        43.52781         0.89497
C         52.41580        45.67853         0.53171
C         51.16288        46.44961         0.65598
C         52.40632        48.54573         0.22607
C         51.15360        47.87029         0.29322
C         52.42908        50.01748         0.35762
C         51.13961        50.75829         0.27141
C         52.50994        52.86766        -0.22975
C         51.17338        52.28903         0.19231
C         52.51447        54.32332        -0.54426
C         51.15441        55.08834        -0.65926
C         52.46676        57.29689        -0.25673
C         51.16318        56.58011        -0.55645
C         52.38872        58.69206         0.22425
C         51.13089        59.38442         0.12115
C         52.28304        61.47709         0.66759
C         51.17139        60.82655         0.25507
C         54.95037        40.00827         0.21281
C         54.89387        41.43226         0.20778
C         53.65683        42.13543         0.33459
C         54.88559        44.27794         0.33226
C         53.64481        43.55838         0.41315
C         54.86965        45.70255         0.37068
C         53.63214        46.40738         0.37851
C         54.86441        48.56604         0.40489
C         53.62231        47.84212         0.31719
C         54.89564        50.02224         0.34166
C         53.70894        50.74339         0.23874
C         54.97111        52.86607        -0.31550
C         53.68249        52.16064        -0.08052
C         54.95453        54.37388        -0.09185
C         53.67713        55.10343        -0.11591
C         54.82115        57.18209         0.54756
C         53.67887        56.50096         0.06275
C         54.80596        58.60676         0.72411
C         53.55374        59.32934         0.63636
C         54.78967        61.49061         1.08842
C         53.48109        60.73395         1.19814
C         54.84008        62.87852         1.20886
C         57.36998        40.03584        -0.08969
C         56.14531        39.33644         0.09238
C         57.34185        41.44927        -0.11156
C         56.12979        42.15181         0.07749
C         57.34224        44.32750         0.11909
C         56.12337        43.59141         0.16871
C         57.32757        45.71287         0.30643
C         56.09718        46.42505         0.41391
C         57.28089        48.58138         0.90074
C         56.06070        47.85553         0.49872
C         57.33333        50.04708         0.71950
C         56.17763        50.70528         0.36401
C         57.42287        52.89965         0.39897
C         56.29107        52.09950        -0.20848
C         57.36706        54.32393         0.54010
C         56.14828        55.03206         0.41260
C         57.31273        57.16010         0.93027
C         56.02201        56.39638         1.02689
C         57.27896        58.60742         1.32569
C         55.99723        59.32578         0.97755
C         57.25539        61.46569         1.05403
C         56.00748        60.75991         1.03821
C         57.28204        62.87466         1.21119
C         56.06431        63.55717         1.29220
C         59.87437        37.24638        -0.60578
C         58.67533        37.91617        -0.50884
C         59.85503        39.98545        -0.02741
C         58.63241        39.30892        -0.22094
C         59.78790        41.45184         0.23741
C         58.63739        42.14617        -0.49807
C         59.87619        44.33227         0.20275
C         58.62928        43.70791        -0.42187
C         59.86712        45.72884         0.35819
C         58.59535        46.52014         0.15279
C         59.82076        48.58725         1.12388
C         58.55281        47.80896         0.96748
C         59.78557        50.06421         1.05173
C         58.61773        50.74482         0.80838
C         59.80983        52.93341         0.88275
C         58.61768        52.21129         0.70147
C         59.82674        54.36831         0.82461
C         58.56870        55.05348         0.81710
C         59.77563        57.24022         0.86669
C         58.52846        56.49201         0.88479
C         59.75334        58.61646         0.73490
C         58.51592        59.35472         0.89491
C         59.67734        61.50992         0.36036
C         58.48567        60.72621         0.84830
C         59.83861        62.84836         1.08214
C         58.58467        63.58246         1.57754
C         59.80616        65.73857         1.02260
C         58.64960        65.05880         1.23968
C         62.42708        35.79062        -0.66826
C         62.36981        37.22438        -0.50079
C         61.12310        37.90806        -0.40552
C         62.34369        40.01119         0.08992
C         61.09821        39.30837        -0.09393
C         62.33138        41.37872         0.77436
C         61.03327        42.16602         0.61709
C         62.29055        44.34446         0.64074
C         61.08541        43.64238         0.44835
C         62.31105        45.74860         0.57370
C         61.07327        46.42168         0.53602
C         62.29436        48.63660         0.41998
C         61.09534        47.86440         0.85581
C         62.27390        50.11394         0.64887
C         61.09775        50.73972         1.41354
C         62.34520        52.97727         0.93631
C         61.06955        52.25243         1.22268
C         62.27604        54.34931         0.30139
C         61.04077        55.07360         0.76701
C         62.28965        57.24180         0.52831
C         61.08915        56.52925         1.12164
C         62.23716        58.59535         0.32701
C         60.99250        59.35074         0.49234
C         62.22946        61.48418         0.30701
C         60.96331        60.71855         0.36164
C         62.15045        62.94405        -0.07752
C         61.08100        63.61915         0.76582
C         62.27764        65.77493         0.54001
C         61.08178        65.09916         0.80232
C         62.39075        67.20134         0.70021
C         64.91323        35.84026        -0.93997
C         63.59632        35.13043        -0.81979
C         64.85307        37.28089        -0.48180
C         63.60347        37.94703        -0.40238
C         64.84887        40.13756        -0.24362
C         63.55224        39.35998        -0.11951
C         64.79445        41.46271         0.48420
C         63.51801        42.24690         0.28890
C         64.83639        44.36369         0.75941
C         63.54629        43.60340         1.02439
C         64.80854        45.79284         0.59221
C         63.56885        46.48839         0.53385
C         64.78092        48.59954         0.18025
C         63.57862        47.89276         0.35438
C         64.72254        50.07788         0.06311
C         63.56594        50.82724         0.61711
C         64.77370        52.97000         0.45894
C         63.58956        52.22004         0.66680
C         64.82898        54.39922         0.46400
C         63.57594        55.11802         0.43808
C         64.78818        57.21429         0.18562
C         63.54713        56.50480         0.38216
C         64.75065        58.59963        -0.06991
C         63.42763        59.29255        -0.28800
C         64.70116        61.49151        -0.36025
C         63.50632        60.75302         0.08282
C         64.68942        62.93372        -0.35748
C         63.47774        63.66359        -0.02370
C         64.70277        65.78634        -0.08438
C         63.48737        65.05042         0.14427
C         64.79123        67.14837         0.20117
C         63.59032        67.84334         0.59599
C         67.20978        32.98783         0.20575
C         66.06437        33.68543        -0.18689
C         67.29211        35.77059        -0.12284
C         66.08285        35.07541        -0.35125
C         67.31569        37.22931        -0.07187
C         66.09141        37.96208        -0.19431
C         67.30518        40.04765         0.35539
C         66.10290        39.35994         0.04810
C         67.33724        41.47873         0.57817
C         66.06629        42.18957         0.77884
C         67.30551        44.35344         0.80981
C         66.05649        43.67236         0.80296
C         67.27515        45.83088         0.86697
C         66.02469        46.52754         0.51448
C         67.30782        48.62701         0.10748
C         66.03623        47.92533         0.28548
C         67.29561        50.05498        -0.48513
C         66.00074        50.82381        -0.14461
C         67.29308        52.87243         0.80439
C         66.02010        52.18952         0.48807
C         67.38834        54.42580         0.91793
C         66.07262        55.09858         0.45393
C         67.23161        57.24625        -0.07646
C         66.04674        56.51213         0.22644
C         67.17570        58.62408        -0.39430
C         65.92924        59.32445        -0.33030
C         67.08575        61.44214        -0.90702
C         65.89372        60.75965        -0.56420
C         67.01485        62.89532        -1.28447
C         65.85177        63.62551        -0.67414
C         67.19069        65.73894        -0.56690
C         65.83102        65.11838        -0.82377
C         67.25902        67.06913        -0.10345
C         66.08900        67.80701         0.19452
C         67.42856        69.81771         0.68167
C         66.21464        69.18019         0.57998
C         69.69530        31.43833         0.71230
C         69.73229        32.95079         0.73341
C         68.44449        33.64612         0.31401
C         69.77203        35.79364        -0.07102
C         68.47925        35.03640         0.11575
C         69.73527        37.12100         0.68002
C         68.50652        37.91545         0.27872
C         69.76738        39.99291         0.94449
C         68.51265        39.30172         0.46220
C         69.77929        41.48019         0.66329
C         68.54403        42.19224         0.66172
C         69.78095        44.34896         0.68287
C         68.54484        43.65518         0.74188
C         69.89883        45.84432         0.98537
C         68.57106        46.61431         0.86531
C         69.79442        48.61201        -0.14169
C         68.51422        47.98164         0.28999
C         69.82228        50.13315        -0.31554
C         68.53108        50.81215        -0.02614
C         70.25883        53.10964         0.08671
C         68.47411        52.00202         0.61671
C         69.88446        54.39940        -0.30985
C         68.69470        55.12056         0.28866
C         69.58291        57.19336        -1.00230
C         68.54907        56.56096        -0.13874
C         69.52521        58.60270        -1.20340
C         68.34854        59.33428        -0.84654
C         69.49484        61.45601        -1.46440
C         68.29713        60.73746        -1.08281
C         69.51862        62.89549        -1.42680
C         68.33130        63.62303        -1.16705
C         69.59498        65.79462        -1.26071
C         68.34870        65.01335        -0.93296
C         69.76948        67.05701        -0.45090
C         68.60310        67.62367         0.31712
C         69.90230        69.74668         0.57160
C         68.66181        69.13397         0.45186
C         70.09101        71.04755         1.16852
C         72.10515        31.38520         0.31865
C         70.82966        30.72697         0.56443
C         72.16612        32.70390         0.05119
C         70.90258        33.51119        -0.10389
C         72.18644        35.66763         0.42440
C         71.02507        34.99051         0.19099
C         72.20927        37.10028         0.48247
C         71.04871        37.86056         0.50986
C         72.21201        40.04334         0.37957
C         71.04415        39.28651         0.54306
C         72.20723        41.43435         0.43378
C         70.99737        42.17250         0.54416
C         72.18757        44.33525         0.23260
C         70.99500        43.62992         0.49931
C         72.20650        45.72485         0.06772
C         71.07804        46.50628         0.29940
C         72.25628        48.64441        -0.16150
C         71.08350        47.91880         0.04635
C         72.27772        50.04789        -0.37274
C         71.13746        50.82641        -0.34149
C         71.95493        52.88784        -1.58352
C         71.17160        52.27695        -0.58732
C         71.77621        54.24149        -1.85337
C         70.75590        55.01660        -1.25040
C         71.69770        57.13842        -2.19993
C         70.66178        56.45294        -1.50932
C         71.70605        58.51488        -2.29539
C         70.63541        59.28711        -1.78339
C         71.87128        61.44785        -2.05594
C         70.65969        60.73007        -1.79041
C         71.93939        62.80567        -1.90479
C         70.78208        63.58429        -1.56776
C         72.07625        65.71570        -1.43767
C         70.85697        64.97745        -1.37978
C         72.12643        67.03624        -1.05565
C         70.98314        67.68669        -0.46142
C         72.32375        69.29580         0.99423
C         71.16622        69.10057         0.04092
C         72.40106        70.44611         1.70286
C         71.30566        71.39206         1.69537
O         51.57724        50.33837         1.59059
O         69.12263        56.19436         1.18398
O         69.63379        52.53539         1.20522
O         69.71268        49.22894        -1.46317
O         50.34096        46.13712         1.82583
O         51.88639        54.61619        -1.83210
O         60.90783        62.92493         2.06364
O         61.83484        52.94053         2.29738
O         63.10364        61.14387         1.43728
O         60.65952        48.08604         2.23301
O         65.06975        50.69940        -1.25855
O         61.97409        49.55011        -0.68572
O         49.39179        52.47634        -1.77998
O         60.01519        41.80342         1.63781
O         57.75246        47.92756         2.16539
O         66.51996        52.22441         1.89313
O         67.82175        46.45327         2.11584
O         51.94997        57.18785        -1.62760
O         65.26453        41.48422         1.85045
O         55.04379        53.73070        -1.47671
O         57.28639        58.58683         2.80406
H         56.58234        57.94465         3.06965
O         64.94270        40.48732        -1.68286
H         65.03477        39.64636        -2.18115
O         46.21265        46.30767        -2.33307
H         45.48310        46.88579        -2.64163
O         50.33558        49.92879        -1.80338
H         50.02754        50.77817        -2.21094
O         63.20337        59.29814        -1.74104
H         63.25370        58.37077        -2.05456
O         69.72480        39.85043         2.42643
H         70.45113        40.40101         2.79116
O         70.50348        33.40547        -1.51199
H         71.31987        33.38325        -2.05417
O         56.73703        51.85871        -1.58448
H         56.43915        52.63829        -2.11184
O         67.34944        49.92706        -1.91634
H         66.41659        49.91638        -2.23823
O         67.43404        54.72028         2.32036
H         68.25641        54.33809         2.69086
O         53.25290        60.58122         2.64764
H         52.41730        60.08042         2.76034
O         41.34284        50.82122         1.68344
H         40.50587        51.24496         1.97248
O         69.58542        36.85362         2.09701
H         69.55323        37.72913         2.54952
O         58.85875        41.79773        -1.90237
H         58.64011        40.84815        -2.01933
O         50.96584        43.56622         2.34799
H         50.80402        44.51289         2.58810
O         63.48419        43.42592         2.45622
H         64.08883        42.67762         2.68782
O         70.00357        33.34382         2.10512
H         69.20433        33.16718         2.64275
O         61.26820        56.57454         2.58412
H         61.25576        57.51772         2.85469
O         69.34301        66.28457        -2.64291
H         70.11863        66.83120        -2.89602
O         61.32818        50.48195         2.81346
H         61.69211        51.30977         3.20761
O         62.50594        41.06680         2.16879
H         61.61464        41.10538         2.58611
O         66.73750        62.90978        -2.75833
H         65.92622        62.37421        -2.89963
O         65.20654        35.89302        -2.39626
H         64.40251        36.24064        -2.83751
O         62.10891        54.10092        -1.13655
H         62.03535        54.96630        -1.59048
O         71.52085        69.86527        -1.16660
H         71.65027        70.79642        -0.88527
O         55.78233        56.20637         2.50774
H         56.48531        55.60037         2.83081
O         58.60458        63.54069         3.03282
H         59.55541        63.49873         3.29454
O         43.85033        55.23945        -2.34052
H         44.68633        55.72005        -2.52239
O         58.62613        46.98115        -1.23286
H         58.65874        46.16492        -1.79150
O         47.52524        52.70324         1.42237
H         46.74612        53.15336         1.81404
O         46.36368        50.74914        -2.31981
H         45.61277        51.27350        -2.67230
O         65.56137        65.38222        -2.25464
H         66.16882        64.79104        -2.76494
O         61.75996        62.96908        -1.47896
H         61.73545        63.90370        -1.77346
O         69.82270        36.13023        -1.49123
H         69.82935        35.26941        -1.97234
O         70.27257        45.89127         2.40180
H         69.42388        45.87973         2.90732
O         58.66015        44.23942        -1.78822
H         58.82404        43.48060        -2.39842
O         59.36664        61.87727        -1.02312
H         59.47419        61.08094        -1.58408
O         68.77002        67.12922         1.69939
H         69.56933        67.55894         2.07286
O         63.31903        42.54928        -1.10524
H         63.75643        41.84681        -1.64655
O         51.01400        52.79179         1.55605
H         51.34553        52.07462         2.15237
H         37.50781        48.93947         0.04024
H         35.38559        50.18843         0.15756
H         37.52373        53.92324        -0.05151
H         35.39596        52.69259         0.13859
H         39.16499        48.01164        -0.30377
H         39.09831        54.80321        -0.71720
H         41.27258        46.80986        -0.25264
H         41.20182        56.02498        -0.97460
H         45.02696        44.65802        -0.19907
H         42.96506        45.89531         0.14119
H         44.86578        58.18950         0.24335
H         42.79277        57.00088        -0.16239
H         46.82119        43.76149        -1.08156
H         46.51292        59.22145         0.00180
H         48.87354        42.52994        -0.50787
H         48.60034        60.44208         0.11174
H         52.37421        40.35627         0.14718
H         50.28231        41.48144         0.56282
H         52.26361        62.57400         0.73503
H         50.28931        61.41294        -0.03935
H         54.03158        39.42289         0.34708
H         53.91474        63.46286         1.30322
H         56.14748        38.23939         0.14381
H         56.04626        64.64310         1.45519
H         59.85568        36.17780        -0.85731
H         57.74183        37.36403        -0.68318
H         59.75384        66.83404         0.93115
H         57.73013        65.64795         1.37161
H         61.49323        35.21192        -0.64627
H         61.49906        67.77982         0.97771
H         63.57280        34.04253        -0.97312
H         63.62283        68.92457         0.78427
H         67.13823        31.90231         0.35952
H         65.14174        33.11343        -0.35210
H         67.44315        70.89432         0.90323
H         65.30827        69.77177         0.76477
H         68.75670        30.91792         0.95538
H         69.23012        71.71645         1.31353
H         73.02178        30.77856         0.35619
H         70.81659        29.62978         0.64032
H         73.13393        33.17955        -0.17031
H         73.14290        35.13384         0.52787
H         73.19420        37.58915         0.50492
H         73.16690        39.53500         0.18473
H         73.16685        41.95503         0.32819
H         73.12060        43.78989         0.04387
H         73.12955        46.18778        -0.30801
H         73.22661        48.13492        -0.08586
H         73.25598        50.53839        -0.48051
H         72.69375        52.30310        -2.14825
H         72.42650        54.70193        -2.60799
H         72.54589        56.58120        -2.61741
H         72.55353        59.00609        -2.79161
H         72.78327        60.89604        -2.32028
H         72.90307        63.30855        -2.06104
H         73.00744        65.21869        -1.74455
H         73.07490        67.58789        -1.11016
H         73.15053        68.57024         0.99965
H         73.27976        70.66532         2.32676
H         71.43119        72.35274         2.21367
