         344
 CSIRO Nanostructure Databank - Neutral Graphene Oxide Data Set
C          1.22950         2.00137        -0.11921
C          1.17753         3.38849        -0.13927
C          2.45153         1.29577        -0.17193
C          2.35921         4.18000        -0.17887
C          1.13397         6.32866        -0.33557
C          1.10217         7.67818        -0.46797
C          2.36378         5.57690        -0.30304
C          2.32737         8.47704        -0.59511
C          1.10191        10.65780         0.21354
C          1.18064        11.97672         0.56355
C          2.30249         9.96626        -0.28229
C          2.39291        12.73561         0.45636
C          1.14328        14.94969         0.23329
C          1.16554        16.29561         0.06477
C          2.35302        14.21738         0.76058
C          2.38499        17.05910         0.20039
C          2.39995        18.46913         0.12190
C          3.66980         1.97710        -0.17571
C          3.67793         3.47483         0.06702
C          4.91115         1.31248        -0.24069
C          4.82440         4.12677        -0.69114
C          3.63019         6.31359        -0.43767
C          3.63363         7.77402        -0.53959
C          4.81738         5.62985        -0.53530
C          4.82696         8.48998        -0.58555
C          3.63276        10.56909         0.15664
C          3.60961        12.08731         0.20935
C          4.80619        10.01102        -0.67079
C          4.84843        12.77642         0.21269
C          3.63140        14.93316         0.40395
C          3.62594        16.34826         0.30764
C          4.85256        14.22277         0.33437
C          4.85430        17.07072         0.24926
C          3.58989        19.17950         0.15658
C          4.84856        18.50645         0.21115
C          6.13860         2.01307        -0.23076
C          6.13268         3.45321        -0.33108
C          7.38127         1.33536        -0.06594
C          7.30676         4.16625        -0.23808
C          6.12066         6.32606        -0.83794
C          6.09491         7.81766        -0.59594
C          7.26685         5.67149        -0.06584
C          7.30491         8.50852        -0.48442
C          6.10571        10.66788        -0.26200
C          6.09216        12.05918         0.02753
C          7.31801         9.95750        -0.34232
C          7.32736        12.75361         0.10500
C          6.07074        14.94566         0.31157
C          6.08718        16.36097         0.27290
C          7.36497        14.20764         0.52903
C          7.32829        17.10093         0.24725
C          6.06713        19.21170         0.23558
C          7.31862        18.53630         0.25839
C          8.58189         2.03457         0.03599
C          8.55509         3.47564        -0.06460
C          9.85181         1.36031         0.22637
C          9.75025         4.20405        -0.05063
C          8.57971         6.36080        -0.36391
C          8.57551         7.79703        -0.46286
C          9.75620         5.62346        -0.26289
C          9.78360         8.51990        -0.41641
C          8.55584        10.66482        -0.28153
C          8.53781        12.07985        -0.13227
C          9.81381         9.94942        -0.34043
C          9.79558        12.82196        -0.12911
C          8.51205        14.94053        -0.15200
C          8.56728        16.41430         0.19273
C          9.80108        14.17790         0.00218
C          9.76828        17.12425         0.22302
C          8.54772        19.24173         0.23541
C          9.78824        18.56157         0.23221
C         11.02558         2.04691         0.42576
C         10.98250         3.52324         0.39732
C         12.32857         1.39812         0.52771
C         12.27812         4.27012         0.45037
C         11.03926         6.29359        -0.53501
C         11.06562         7.81333        -0.58190
C         12.32500         5.56076        -0.30682
C         12.34283         8.50072        -0.30351
C         11.04866        10.62903        -0.30441
C         11.05875        12.11111        -0.55499
C         12.30664         9.94382        -0.21218
C         12.32862        12.81947        -0.16431
C         11.06092        14.90716         0.23283
C         11.05280        16.40830         0.34974
C         12.33742        14.22143        -0.03389
C         12.31763        17.12798         0.15549
C         11.04008        19.23876         0.19996
C         12.29342        18.55768         0.12649
C         13.51539         2.05559         0.65010
C         13.58929         3.56127         0.84689
C         14.81866         1.28432         0.83829
C         14.83457         4.12296         0.11040
C         13.61873         6.32766        -0.33063
C         13.55984         7.80227        -0.26017
C         14.85827         5.63630         0.07103
C         14.80115         8.48018        -0.06884
C         13.50897        10.66046        -0.06495
C         13.54016        12.09594        -0.05682
C         14.77261         9.93803         0.30706
C         14.77063        12.80358         0.06118
C         13.53496        14.95510        -0.00067
C         13.53450        16.40952         0.04917
C         14.78361        14.24089         0.01097
C         14.75106        17.11770        -0.06854
C         13.53104        19.24514         0.07176
C         14.76452        18.54683        -0.00595
C         16.10065         2.03891         0.50625
C         16.11936         3.53855         0.71576
C         17.24160         1.38009         0.18613
C         17.34676         4.23351         0.16673
C         16.04455         6.33764         0.05318
C         16.02147         7.78314        -0.06918
C         17.32583         5.64046         0.05038
C         17.26937         8.48024        -0.23548
C         16.00017        10.68621        -0.11744
C         16.01606        12.07419        -0.06226
C         17.19784         9.93393        -0.47440
C         17.26833        12.79758        -0.06619
C         15.99027        14.94684         0.00835
C         16.02318        16.38623        -0.41163
C         17.23134        14.22399         0.43534
C         17.26534        17.11879         0.02132
C         16.01174        19.23815        -0.01389
C         17.25543        18.54445         0.06696
C         18.51898         2.05802        -0.00657
C         18.54173         3.52059        -0.02404
C         19.69070         1.35087        -0.11917
C         19.74345         4.22857        -0.27745
C         18.52816         6.35787        -0.19051
C         18.49273         7.80831        -0.31247
C         19.74052         5.63134        -0.33281
C         19.74315         8.55488        -0.43743
C         18.50483        10.71142        -0.55598
C         18.48181        12.14763        -0.21632
C         19.74538         9.94169        -0.40954
C         19.73393        12.84103        -0.00450
C         18.50578        14.97939         0.20855
C         18.48206        16.41232         0.18729
C         19.72542        14.25997         0.20820
C         19.69754        17.13382         0.35444
C         18.49003        19.24099         0.18516
C         19.72148        18.55665         0.30005
C         20.97878         2.01375        -0.16304
C         21.01357         3.46255        -0.60406
C         22.11332         1.33508         0.15525
C         22.24831         4.19723        -0.11617
C         21.01700         6.34442        -0.73168
C         21.01073         7.83509        -0.46155
C         22.24663         5.63688        -0.20578
C         22.20808         8.52457        -0.37191
C         21.00277        10.73884        -0.59115
C         20.96484        12.14861        -0.03222
C         22.24993         9.97464        -0.26315
C         22.17004        12.83055         0.21381
C         20.96532        14.94489         0.36350
C         20.92651        16.38794         0.62082
C         22.18732        14.24539         0.36266
C         22.25214        17.14584         0.62288
C         20.98557        19.24844         0.26133
C         22.21548        18.58930         0.30221
C         23.40153         2.02033         0.52779
C         23.37244         3.50496         0.26229
C         24.68856         1.34839         0.07284
C         24.67328         4.20976         0.51196
C         23.42373         6.36105         0.01321
C         23.46271         7.81260        -0.16491
C         24.64893         5.67401         0.19749
C         24.63944         8.49994        -0.04900
C         23.41534        10.65831        -0.07999
C         23.43878        12.06113         0.46673
C         24.73093         9.97558        -0.28288
C         24.70784        12.82406         0.16717
C         23.45664        14.96577         0.36121
C         23.47967        16.36918         0.37287
C         24.69059        14.24558         0.20661
C         24.70594        17.08382         0.24334
C         23.45846        19.23303         0.05988
C         24.68549        18.53989         0.07594
C         25.86260         2.03784        -0.16235
C         25.79819         3.49497        -0.21483
C         27.15535         1.34643        -0.08362
C         26.78577         4.27831        -0.75867
C         25.87958         6.35754         0.02822
C         25.92267         7.81959         0.33897
C         26.99148         5.65502        -0.43126
C         27.13959         8.55072        -0.16503
C         25.91658        10.64612         0.45548
C         25.91967        12.12880         0.14754
C         27.19015         9.92886         0.02861
C         27.15397        12.83159         0.16024
C         25.93002        14.95740         0.21178
C         25.91556        16.38387         0.25213
C         27.15853        14.21945         0.21436
C         27.20413        17.15257         0.44292
C         25.90176        19.21172        -0.19074
C         27.15176        18.55510        -0.12856
C         28.41098         1.92713        -0.09366
C         28.64168         3.27075        -0.58575
C         29.61969         1.31156         0.45458
C         29.58111         4.14485        -0.09964
C         28.31055         6.29130        -0.70508
C         28.34820         7.82703        -0.56801
C         29.58359         5.57040        -0.41810
C         29.63671         8.49702        -0.35990
C         28.41526        10.62845        -0.02347
C         28.42187        12.05712         0.47017
C         29.64475         9.91061        -0.16637
C         29.69344        12.79342         0.11217
C         28.45372        14.94704         0.49095
C         28.37319        16.33930        -0.14636
C         29.69573        14.19621         0.06613
C         29.67233        17.09748        -0.13168
C         28.36151        19.19563        -0.36714
C         29.62847        18.50990        -0.26609
C         30.67468         2.07627         0.81359
C         30.65484         3.59118         0.81055
C         31.96989         4.24032         0.43250
C         30.78128         6.27785        -0.30753
C         30.83249         7.73835        -0.35863
C         31.99846         5.50321        -0.04534
C         32.05046         8.45893        -0.25839
C         30.89056        10.60960        -0.14332
C         30.88985        12.07133        -0.13540
C         32.07466         9.84835        -0.19622
C         32.06335        12.80013        -0.42340
C         30.88924        14.92031        -0.17858
C         30.89240        16.39566        -0.17263
C         32.06393        14.18871        -0.44152
C         32.08983        17.14132        -0.23092
C         30.84695        19.22136        -0.35133
C         32.05865        18.53621        -0.30729
O         17.76311        10.35756        -1.77749
O          2.22072         9.50536        -1.67434
O         11.07506        15.54671         1.56459
O         27.76065         3.69774        -1.58796
O         25.83587        10.55091         1.87851
O         21.59390        16.79702         1.87563
O         11.41241         4.29535         1.62993
O         11.06027         6.99488        -1.81088
O         28.28786         7.13573        -1.88658
O         13.09639         5.59560        -1.54505
O          8.19870        14.90338        -1.57962
H          8.95509        15.28091        -2.07504
O          4.62946         3.88086        -2.11276
H          5.32489         4.40186        -2.58021
O         27.37608        17.36985         1.86330
H         27.65124        16.51175         2.27100
O          7.62112        14.23109         1.96091
H          6.90011        13.74116         2.40850
O         23.47092        11.83069         1.91719
H         24.34691        11.35553         2.10745
O         14.77031         0.03798         0.14457
H         14.80458         0.22540        -0.81597
O         16.08751        16.36422        -1.90715
H         16.04383        17.29798        -2.20660
O          6.99008         5.90793         1.34555
H          7.65173         5.41331         1.87284
O         28.06475        16.08759        -1.54703
H         28.08028        16.94741        -2.01781
O         16.18146         3.79955         2.14003
H         17.03311         3.44476         2.46917
O         26.03689         7.90717         1.79872
H         25.93341         8.89152         2.03946
O          2.24919        14.29825         2.24108
H          2.21536        15.25116         2.47352
O          4.65454        10.39077        -2.06080
H          3.75619        10.08723        -2.34849
O         23.46699         1.85150         1.99060
H         24.10089         2.53055         2.32886
O         28.36276        11.89940         1.93681
H         27.49457        11.42542         2.12359
O          6.39034         6.10709        -2.26448
H          5.87534         6.77048        -2.77130
O         30.38123         3.98122         2.19582
H         30.44971         4.95827         2.24165
O         13.76264         3.78899         2.25566
H         12.86466         3.76125         2.66092
O         25.06149        10.16347        -1.70413
H         24.29787         9.84782        -2.23380
O         24.97740         4.11121         1.96546
H         25.55016         4.87320         2.20342
O         11.02927        12.23744        -2.03589
H         10.28787        11.68154        -2.36043
O         14.81381         9.93645         1.79564
H         13.97421         9.53894         2.11131
O         28.56816        15.03566         1.94540
H         28.53194        14.11069         2.28718
O         14.80827         3.62053        -1.24656
H         14.20550         4.20741        -1.76996
O          3.85566        10.12227         1.52369
H          3.23852        10.61214         2.10731
O          3.97056         3.65435         1.48510
H          3.23771         3.24981         1.99448
O         17.12491        14.10949         1.91488
H         17.91939        13.62874         2.23288
O         21.09503         6.21398        -2.20873
H         20.33244         6.70419        -2.58518
O         21.10989         3.42581        -2.05953
H         21.15217         4.36653        -2.36899
O         21.09480        10.94676        -2.05768
H         20.19331        11.15914        -2.38510
H          0.28892         1.43255        -0.11726
H          0.19022         3.86937        -0.18364
H          2.43932         0.19866        -0.25252
H          0.17995         5.79004        -0.25381
H          0.13701         8.19995        -0.52586
H          0.13249        10.14044         0.22258
H          0.27006        12.49032         0.90347
H          0.19918        14.40106         0.10354
H          0.24784        16.83210        -0.22149
H          1.44479        19.00807         0.03716
H          4.92617         0.21105        -0.25195
H          3.57544        20.27819         0.11645
H          7.38179         0.23811         0.02015
H          6.05273        20.31186         0.22234
H          9.86183         0.25976         0.20559
H          8.53443        20.34140         0.21566
H         12.34376         0.29759         0.46682
H         11.04254        20.33888         0.21126
H         14.87263         1.03408         1.93794
H         13.53843        20.34445         0.10691
H         17.22644         0.28230         0.09251
H         16.01177        20.33753         0.01449
H         19.67218         0.25268        -0.03739
H         18.48463        20.34114         0.17399
H         22.03672         0.26905         0.42562
H         20.97129        20.33610         0.09322
H         24.72717         0.25263         0.18530
H         23.46325        20.31631        -0.13646
H         27.09560         0.29688         0.25203
H         25.87154        20.28135        -0.45279
H         29.64883         0.21937         0.58911
H         28.36984        20.26428        -0.63404
H         31.56424         1.59816         1.25202
H         32.90922         3.70904         0.64816
H         32.97231         5.97665        -0.23788
H         33.00838         7.92190        -0.24772
H         33.05107        10.35022        -0.15432
H         32.99932        12.26954        -0.64478
H         33.00301        14.71151        -0.66791
H         33.06343        16.63298        -0.21847
H         30.83143        20.31671        -0.44306
H         33.00344        19.09575        -0.35371
