         640
 CSIRO Nanostructure Databank - Neutral Graphene Oxide Data Set
C         22.92959        27.48131         0.02504
C         22.92726        28.69050        -0.55436
C         22.93524        31.76555        -0.78948
C         22.96437        33.09128        -0.50339
C         23.02909        35.95831         0.09129
C         23.04449        37.33950         0.22713
C         22.96420        40.25320        -0.27963
C         22.95940        41.57331        -0.60220
C         22.94462        44.53413        -0.35532
C         22.95626        45.90457        -0.25101
C         25.37720        24.68605         0.46052
C         24.20746        25.36480         0.48181
C         25.44906        27.49702         0.09111
C         24.17492        26.86461         0.60501
C         25.44474        28.81329        -0.36373
C         24.17500        29.45700        -0.75976
C         25.43754        31.69613        -0.59350
C         24.17690        30.99257        -0.89788
C         25.41865        33.07164        -0.31135
C         24.20414        33.80474        -0.28089
C         25.48610        35.94243        -0.02128
C         24.21977        35.22003        -0.06930
C         25.47652        37.40286         0.06444
C         24.24188        38.07969         0.16542
C         25.44973        40.21707        -0.24698
C         24.18179        39.59676         0.32618
C         25.43333        41.66580        -0.66691
C         24.15331        42.37811        -0.59182
C         25.39772        44.50976        -0.63546
C         24.15506        43.79014        -0.53321
C         25.37170        45.92426        -0.61396
C         24.17348        46.63317        -0.37425
C         25.36827        48.76997        -0.14201
C         24.21303        48.05126        -0.11123
C         27.93540        23.21615         0.61847
C         27.89937        24.63526         0.43984
C         26.66444        25.35679         0.40432
C         27.91039        27.44078        -0.05921
C         26.67442        26.76346         0.19182
C         27.89001        28.80639        -0.42447
C         26.67563        29.52797        -0.55649
C         27.89543        31.70257        -0.63893
C         26.66806        30.96608        -0.63453
C         27.93467        33.08455        -0.40278
C         26.68976        33.74888         0.13872
C         27.98757        35.94884         0.22185
C         26.68108        35.24693        -0.03312
C         27.94700        37.43019        -0.06076
C         26.73315        38.10406         0.02836
C         27.97086        40.29549        -0.35339
C         26.75407        39.60820         0.21498
C         27.94646        41.68303        -0.65657
C         26.69696        42.41676        -0.69733
C         27.89799        44.56777        -0.88709
C         26.65862        43.81219        -0.75831
C         27.88636        45.93917        -0.88555
C         26.60864        46.67442        -0.87493
C         27.92430        48.85227        -0.41342
C         26.61596        48.18597        -0.65806
C         27.95794        50.29090        -0.25901
C         30.37693        23.17844         0.49158
C         29.11643        22.51812         0.62171
C         30.38236        24.59516         0.37250
C         29.14427        25.32445         0.30523
C         30.39183        27.43766        -0.03319
C         29.15736        26.73250         0.05450
C         30.41991        28.82459        -0.34399
C         29.15866        29.46285        -0.75519
C         30.41264        31.69577        -0.71226
C         29.14771        30.98421        -0.89930
C         30.37642        33.09074        -0.70044
C         29.15421        33.81460        -0.52219
C         30.36295        35.97792        -0.52992
C         29.19373        35.24448        -0.35254
C         30.39537        37.41561        -0.40575
C         29.18310        38.13812        -0.24126
C         30.41178        40.25336        -0.67957
C         29.18424        39.56981        -0.40520
C         30.39762        41.68724        -0.84407
C         29.16445        42.37306        -0.88361
C         30.43134        44.53536        -0.92497
C         29.15481        43.82089        -1.30133
C         30.44640        45.99816        -0.97902
C         29.13177        46.74266        -1.00304
C         30.38328        48.80442        -0.27207
C         29.12251        48.15098        -0.52837
C         30.33430        50.16856         0.39902
C         29.11301        50.94754        -0.00454
C         32.83617        20.33255         0.32197
C         31.65371        21.02189         0.42082
C         32.85116        23.15612         0.44116
C         31.61818        22.45075         0.46762
C         32.83871        24.57699         0.39586
C         31.63449        25.28641         0.31017
C         32.82445        27.45162         0.26509
C         31.64691        26.74137         0.17798
C         32.80675        28.94815         0.38123
C         31.60761        29.57939        -0.27383
C         32.88274        31.69732        -0.47441
C         31.63812        30.97633        -0.53392
C         32.91220        33.08851        -0.71965
C         31.63934        33.79736        -0.94644
C         32.89596        36.00740        -0.77271
C         31.61272        35.30423        -0.93796
C         32.88199        37.40029        -0.72371
C         31.62053        38.12158        -0.63546
C         32.87890        40.18437        -1.27933
C         31.61968        39.52309        -0.76257
C         32.88383        41.70252        -1.15708
C         31.62365        42.41264        -0.94899
C         32.88252        44.55938        -0.56065
C         31.63697        43.84215        -0.83755
C         32.85506        45.99115        -0.36845
C         31.66934        46.71118        -0.57073
C         32.90283        48.88548        -0.38324
C         31.59609        48.13025        -0.36124
C         32.84480        50.28874         0.17260
C         31.63356        50.94347         0.35727
C         32.81186        53.05158         0.71473
C         31.63956        52.32663         0.68018
C         35.37437        18.85471         0.21415
C         35.33771        20.28465         0.25978
C         34.10016        21.00050         0.31229
C         35.34081        23.11306         0.48574
C         34.10815        22.42743         0.40813
C         35.31837        24.56204         0.91255
C         34.14964        25.31946         0.25903
C         35.35335        27.49476         0.45261
C         34.06814        26.76550         0.76487
C         35.34280        28.86989         0.14482
C         34.11269        29.60586         0.02594
C         35.35981        31.69368        -0.36945
C         34.12104        30.97869        -0.26792
C         35.37022        33.10436        -0.60697
C         34.12306        33.81920        -0.74945
C         35.34269        35.97805        -0.77506
C         34.12219        35.26514        -0.80652
C         35.35744        37.38811        -0.65606
C         34.12635        38.12025        -0.68804
C         35.34887        40.23856        -0.53051
C         34.14002        39.52582        -0.75454
C         35.36524        41.65963        -0.44969
C         34.16796        42.44291        -0.80255
C         35.29078        44.51523         0.02911
C         34.08250        43.85974        -0.40041
C         35.28527        45.92827         0.26436
C         34.07273        46.68657         0.04616
C         35.24276        48.81947         0.59644
C         34.06053        48.07548         0.14742
C         35.30619        50.28764         0.43224
C         34.07689        50.99779         0.34938
C         35.31685        53.11688         0.63289
C         34.06967        52.41108         0.55419
C         35.35361        54.54319         0.76381
C         37.82346        18.84130         0.21391
C         36.55797        18.16818         0.20536
C         37.81931        20.28348         0.24199
C         36.58092        20.98811         0.27923
C         37.81132        23.13805         0.47059
C         36.57442        22.42098         0.40467
C         37.80213        24.58716         0.55745
C         36.61743        25.28860         0.67204
C         37.87445        27.42325         0.36466
C         36.61934        26.79086         0.89436
C         37.85555        28.81357        -0.22427
C         36.57402        29.58167        -0.04722
C         37.84616        31.68880        -0.36499
C         36.58810        30.97233        -0.24552
C         37.83085        33.10419        -0.57659
C         36.60015        33.79628        -0.69016
C         37.85669        35.98384        -0.63895
C         36.62105        35.25086        -1.09030
C         37.83427        37.37315        -0.45443
C         36.58787        38.10524        -0.50479
C         37.78130        40.21577         0.00598
C         36.57481        39.50603        -0.32525
C         37.74156        41.60509         0.21691
C         36.52170        42.34844        -0.01387
C         37.69371        44.43683         0.76478
C         36.48169        43.76209         0.17861
C         37.74080        45.92122         0.52094
C         36.53060        46.60573         0.49066
C         37.81159        48.80498         0.66097
C         36.54121        48.05896         0.74911
C         37.78566        50.24007         0.62572
C         36.53730        50.96623         0.55199
C         37.79437        53.11795         0.59513
C         36.54622        52.40645         0.57779
C         37.80346        54.56218         0.76195
C         36.53393        55.22726         0.84455
C         40.29770        16.02153         0.25087
C         39.10000        16.70245         0.21957
C         40.33350        18.86702        -0.01422
C         39.03987        18.12350         0.21480
C         40.29838        20.32227         0.36538
C         39.05422        21.00832         0.32501
C         40.29056        23.14318         0.53450
C         39.04184        22.43558         0.44030
C         40.26972        24.58205         0.54684
C         39.07903        25.28762         0.53984
C         40.31951        27.43680         0.08880
C         39.05771        26.73765         0.38926
C         40.32095        28.82072        -0.10412
C         39.07937        29.59263         0.24770
C         40.29787        31.69377        -0.43658
C         39.07241        31.01026        -0.26026
C         40.29376        33.11576        -0.54196
C         39.06909        33.82247        -0.59031
C         40.29624        35.94612        -0.33147
C         39.07603        35.26054        -0.54449
C         40.28190        37.36699        -0.14763
C         39.05143        38.08065        -0.19533
C         40.25370        40.14462         0.33424
C         39.04094        39.48380         0.06387
C         40.19098        41.53497         0.89770
C         38.97542        42.33383         0.45459
C         40.23887        44.47186         0.22713
C         38.97552        43.70121         0.48991
C         40.19464        45.93003         0.58008
C         39.00122        46.62791         0.60090
C         40.27006        48.79467         0.57359
C         39.01185        48.09188         0.63304
C         40.26628        50.23987         0.58414
C         39.00856        50.95447         0.59916
C         40.27629        53.08402         0.40014
C         38.99968        52.38119         0.53635
C         40.28639        54.62023         0.67631
C         39.00361        55.27615         0.94697
C         40.23801        57.27301         1.67565
C         39.07631        56.67297         1.31499
C         42.75942        16.00004         0.56321
C         41.54940        16.71040         0.39933
C         42.75870        18.81104         0.70937
C         41.56463        18.12951         0.45311
C         42.74667        20.28241         1.04780
C         41.49409        21.01528         0.60241
C         42.80604        23.14724         0.97196
C         41.50116        22.42909         0.64795
C         42.82439        24.56313         0.44923
C         41.55690        25.34706         0.69601
C         42.80295        27.38670         0.00696
C         41.51797        26.69518         0.03452
C         42.83900        28.88153        -0.23112
C         41.52450        29.49440        -0.68688
C         42.74298        31.66903        -0.70242
C         41.54298        30.99297        -0.55179
C         42.77047        33.09441        -0.55604
C         41.54126        33.80896        -0.50475
C         42.76499        35.87666        -0.10005
C         41.53818        35.22106        -0.33529
C         42.71964        37.27923         0.32137
C         41.48782        38.05712         0.13966
C         42.76135        40.18006         0.43612
C         41.49244        39.45061         0.35387
C         42.76927        41.59098         0.50942
C         41.51292        42.30189         0.83504
C         42.74848        44.50369         0.33034
C         41.50398        43.78916         0.70638
C         42.70726        45.87138         0.27163
C         41.51218        46.61590         0.82513
C         42.72927        48.77234         0.39199
C         41.48236        48.08837         0.49746
C         42.74316        50.21468         0.57587
C         41.48863        50.93105         0.65201
C         42.72347        53.07627         0.79820
C         41.53288        52.37102         0.64566
C         42.73980        54.49944         1.02698
C         41.53579        55.19849         1.14624
C         42.77422        57.26459         1.70558
C         41.50007        56.49226         1.91643
C         43.95513        16.68405         0.70604
C         45.24518        18.82771         0.81060
C         43.98191        18.09616         0.78690
C         45.25455        20.24237         0.62329
C         44.02818        20.98829         0.66289
C         45.26776        23.06961         0.31145
C         44.04259        22.36885         0.57898
C         45.26269        24.47478         0.08391
C         43.98893        25.17817         0.08433
C         45.28793        27.30606        -0.50797
C         43.96787        26.57108        -0.49998
C         45.27986        28.72777        -1.05132
C         44.04241        29.51141        -0.71236
C         45.28206        31.65546        -0.66171
C         44.01014        30.95323        -1.12849
C         45.26045        33.05389        -0.46489
C         44.01077        33.78482        -0.43850
C         45.25007        35.90422        -0.07813
C         44.00028        35.18270        -0.17588
C         45.26694        37.30758         0.06089
C         44.03925        38.03677         0.39842
C         45.21328        40.19470         0.09091
C         43.99487        39.49514         0.28205
C         45.20213        41.61821         0.06383
C         43.96867        42.32633         0.25848
C         45.19875        44.46367        -0.00792
C         43.96719        43.75142         0.15117
C         45.20435        45.89090         0.00032
C         43.90606        46.62846        -0.21904
C         45.19200        48.72621         0.29289
C         43.93423        48.06440         0.22320
C         45.18861        50.20625         0.31279
C         43.93802        50.90602         0.62430
C         45.26113        53.07903         0.88463
C         43.97955        52.31669         1.13520
C         45.23821        54.50320         1.06026
C         44.00311        55.19244         1.21684
C         43.93881        56.62068         1.43340
C         47.68391        18.83403         0.79953
C         46.47750        18.15766         0.92213
C         47.72395        20.21983         0.54408
C         46.49317        20.93575         0.47290
C         47.72302        23.05924         0.05584
C         46.49884        22.35485         0.26435
C         47.70408        24.46668        -0.16182
C         46.46714        25.17309        -0.16249
C         47.73338        27.30936        -0.88317
C         46.45609        26.61047        -0.44081
C         47.73106        28.79210        -0.56897
C         46.54283        29.49199        -0.70070
C         47.72754        31.62728        -0.33371
C         46.49893        30.92653        -0.56056
C         47.72719        33.05469        -0.27458
C         46.48883        33.76737        -0.29813
C         47.71327        35.91489        -0.17402
C         46.48448        35.19162        -0.19109
C         47.70473        37.33631        -0.17616
C         46.47117        38.04481        -0.06665
C         47.66428        40.19750        -0.24142
C         46.45091        39.47655        -0.05014
C         47.63615        41.60792        -0.31820
C         46.42795        42.32369        -0.13691
C         47.66708        44.48581        -0.12605
C         46.42908        43.75957        -0.10739
C         47.66448        45.89099         0.07231
C         46.41288        46.59778         0.11637
C         47.66607        48.71572         0.73557
C         46.39955        48.03173         0.27220
C         47.72777        50.20256         0.50326
C         46.47541        50.96081         0.37054
C         47.72709        53.08354         0.74289
C         46.46562        52.40475         0.70419
C         47.68981        54.50000         0.93020
C         46.50237        55.17770         1.06412
C         50.21789        20.25437         0.42612
C         48.97440        20.93028         0.37339
C         50.20599        23.00229        -0.08473
C         48.97279        22.32932         0.11516
C         50.18680        24.41757        -0.47403
C         48.94217        25.19315        -0.35523
C         50.22591        27.31304        -0.40757
C         48.98802        26.57511        -0.49363
C         50.17911        28.72986        -0.20885
C         48.96784        29.46663        -0.28301
C         50.16725        31.64142        -0.04224
C         48.96039        30.90912        -0.18653
C         50.19051        33.05891        -0.11556
C         48.95742        33.77513        -0.18921
C         50.18147        35.92343        -0.10200
C         48.96076        35.20520        -0.16803
C         50.17507        37.35715        -0.15012
C         48.93389        38.06656        -0.23483
C         50.15275        40.20201        -0.37863
C         48.91788        39.48068        -0.31211
C         50.15454        41.61432        -0.47891
C         48.86939        42.35033        -0.75530
C         50.12019        44.47821        -0.27256
C         48.89784        43.79035        -0.31023
C         50.14191        45.89791        -0.04724
C         48.91114        46.60866         0.12567
C         50.15390        48.71773         0.37155
C         48.93131        48.00684         0.33552
C         50.18127        50.14788         0.54736
C         48.93104        50.89008         0.57673
C         50.21783        52.97751         0.70889
C         48.94582        52.34067         0.64627
C         51.41264        20.92983         0.28782
C         52.69968        23.06036         0.03249
C         51.44383        22.32986         0.05435
C         52.74180        24.43790        -0.19429
C         51.50990        25.17740        -0.52660
C         52.70760        27.32028        -0.16273
C         51.47200        26.63457        -0.33339
C         52.72304        28.73281         0.00397
C         51.42675        29.40401         0.18299
C         52.70008        31.65121         0.11175
C         51.42229        30.94243         0.26083
C         52.67831        33.07036         0.00962
C         51.43371        33.77568        -0.05220
C         52.65407        35.91224         0.01955
C         51.43284        35.20362        -0.04730
C         52.64479        37.38986         0.31125
C         51.38475        38.09277        -0.09935
C         52.64243        40.21402        -0.34644
C         51.39245        39.48998        -0.25530
C         52.62702        41.63468        -0.52010
C         51.36900        42.33561        -0.49881
C         52.58968        44.47392        -0.45409
C         51.36174        43.76469        -0.44502
C         52.61368        45.87836        -0.20184
C         51.37567        46.59275         0.01362
C         52.62295        48.69780         0.37569
C         51.38608        48.00220         0.23352
C         52.65355        50.09415         0.52685
C         51.41159        50.83357         0.59125
C         51.39226        52.26332         0.69324
C         55.12476        23.00653         0.37155
C         53.93134        22.38771         0.41490
C         55.28745        24.40033        -0.17281
C         53.97232        25.17962        -0.14620
C         55.20903        27.34758        -0.20125
C         53.94395        26.57166        -0.16424
C         55.19047        28.82028        -0.01531
C         53.93160        29.48919         0.07451
C         55.16291        31.65843         0.11400
C         53.92103        30.93325         0.12417
C         55.15014        33.09380         0.09499
C         53.91028        33.79493         0.02381
C         55.12854        35.95988         0.04126
C         53.89227        35.22472         0.02586
C         55.10225        37.39962        -0.06747
C         53.90914        38.10100        -0.09811
C         55.09995        40.23974        -0.58651
C         53.87796        39.52905        -0.30400
C         55.07896        41.64918        -0.87517
C         53.82734        42.35150        -0.73794
C         55.02361        44.51014        -0.86771
C         53.81563        43.78714        -0.72188
C         55.07004        45.86695        -0.45552
C         53.85880        46.52705        -0.08814
C         55.20399        48.66298         0.43808
C         53.87249        47.91379         0.41268
C         55.11191        50.12570         0.34298
C         53.92566        50.77656         0.46768
C         57.73335        24.52160         0.66007
C         56.37416        25.17876         0.60613
C         57.69207        27.36996         0.41474
C         56.48216        26.60177         0.08169
C         57.68835        28.79934         0.07697
C         56.39771        29.53226         0.05941
C         57.64110        31.69879         0.26009
C         56.40176        30.95908         0.14701
C         57.62040        33.12669         0.20347
C         56.37382        33.83023         0.11795
C         57.60918        35.98404        -0.06778
C         56.35872        35.26024         0.07417
C         57.61072        37.38099        -0.30290
C         56.38925        38.17803         0.04751
C         57.48541        40.16807        -1.09340
C         56.32596        39.54518        -0.58449
C         57.40592        41.52584        -1.58008
C         56.24728        42.31799        -1.30999
C         57.45856        44.60433        -1.51939
C         56.14828        43.82606        -1.62977
C         57.56235        45.84952        -0.72994
C         56.33413        46.58679        -0.37510
C         57.64494        48.67013        -0.14174
C         56.41354        47.92973        -0.01813
C         58.85094        25.25377         0.84414
C         60.02128        27.47197         1.15246
C         58.84442        26.71381         0.79499
C         60.05814        28.82495         1.03075
C         58.97383        29.56366         0.36604
C         60.06516        31.78635         0.58149
C         58.88754        31.04163         0.44609
C         60.05349        33.16959         0.43649
C         58.84894        33.85284         0.20588
C         60.02773        35.97891        -0.36814
C         58.83852        35.27832        -0.06775
C         59.99329        37.31093        -0.73918
C         58.78019        38.03894        -0.71943
C         59.78427        39.96569        -1.90761
C         58.71446        39.42148        -1.20559
C         59.66030        41.21245        -2.54716
C         58.50864        41.95878        -2.38314
C         59.72149        45.03845        -2.49106
C         58.51946        44.26516        -2.31307
C         59.88165        46.21940        -1.84504
C         58.87208        46.68507        -0.89086
C         58.78931        48.12030        -0.62229
O         58.61865        45.83529         0.27293
O         45.80908        50.72637        -0.95629
O         24.25262        30.10554        -2.06655
O         50.86403        24.69721        -1.75720
O         41.57894        43.19865         2.02884
O         31.56526        34.56454        -2.20983
O         54.62840        48.09893         1.66213
O         29.15825        30.10035        -2.07183
O         42.95931        28.31566         1.14759
O         33.72748        42.28251        -2.21606
O         56.08261        26.87136        -1.30940
O         25.40527        40.51232        -1.64676
O         40.34795        54.05427        -0.67857
O         51.33434        30.11449         1.47122
O         29.86228        46.53381        -2.26661
O         43.37935        37.52524         1.61117
O         26.49350        47.61645        -2.00485
O         58.64435        29.11133        -0.99307
O         35.73391        48.40411         1.93117
O         58.41762        43.13451        -3.14807
O         34.43951        25.42576        -1.15908
H         34.38954        24.52744        -1.54882
O         38.99083        29.67692         1.69895
H         39.83534        30.03864         2.03923
O         55.71191        24.24534        -1.54501
H         55.83503        25.15357        -1.91688
O         47.72810        27.23451        -2.35310
H         48.08032        26.35639        -2.61194
O         24.13255        27.15643         2.04961
H         24.90448        26.70963         2.45751
O         56.52916        38.43444         1.50311
H         55.77260        39.00052         1.76938
O         40.39648        44.43558        -1.24204
H         39.67383        44.96699        -1.63864
O         30.14990        49.85913         1.83297
H         29.25943        49.46043         1.93299
O         33.92757        26.77814         2.22026
H         33.63585        27.69616         2.45506
O         55.89177        25.27487         1.97849
H         56.63486        25.57047         2.54490
O         24.11703        39.87823         1.75259
H         25.01919        39.72815         2.12408
O         26.82462        39.82867         1.67684
H         27.68057        39.46137         1.98628
O         41.47135        56.12612         3.35164
H         42.31158        55.65697         3.54444
O         47.60288        48.58549         2.21937
H         48.47620        48.86000         2.57379
O         43.65227        26.38820        -1.93488
H         44.25363        25.69377        -2.28051
O         36.70320        35.24177        -2.57067
H         35.86287        34.86182        -2.90670
O         42.85333        23.22299         2.44397
H         42.31936        24.01920         2.70054
O         55.73367        43.90050        -3.03123
H         56.46965        43.51383        -3.55994
O         32.87636        39.88799        -2.71102
H         33.40727        40.59747        -3.14243
O         36.64968        26.96608         2.35807
H         35.77776        26.62412         2.68645
O         44.03704        31.03972        -2.59246
H         44.57785        30.27148        -2.90989
O         26.75645        33.52007         1.60034
H         27.45286        34.13776         1.93904
O         39.89840        41.30720         2.31660
H         40.30267        42.06484         2.80445
O         43.75082        46.69841        -1.69520
H         44.50396        47.22308        -2.04285
O         38.02192        28.65972        -1.67231
H         37.24566        28.16881        -2.01628
O         48.76847        42.40738        -2.23886
H         49.56728        42.87640        -2.56313
O         41.51533        29.18562        -2.12323
H         40.63761        29.44378        -2.47857
O         42.69734        20.34290         2.51378
H         42.75664        21.29979         2.76148
O         37.52810        44.32365         2.24067
H         37.53611        43.36594         2.45789
O         35.09487        24.53579         2.35522
H         35.84640        24.05432         2.76055
O         29.12065        43.83502        -2.77287
H         29.27848        44.77326        -3.04142
O         41.71189        46.57319         2.29290
H         40.86912        46.84512         2.71559
O         40.47535        18.89208        -1.49502
H         40.45906        17.95836        -1.79735
O         32.63785        29.20751         1.85751
H         31.71252        28.96649         2.08226
O         28.19334        35.86523         1.71065
H         27.46318        36.37870         2.12113
O         33.19892        49.07673        -1.82036
H         33.01675        48.22689        -2.27649
O         41.63584        25.67448         2.15291
H         42.18091        26.48967         2.24360
O         52.64478        37.47780         1.79728
H         53.42491        36.97274         2.11390
O         43.95746        52.17155         2.61831
H         43.14560        51.67087         2.85047
O         45.24370        28.59498        -2.52308
H         44.52655        27.93989        -2.71430
H         21.98814        26.92195         0.13730
H         21.99622        29.10742        -0.96581
H         21.97887        31.26374        -0.99162
H         22.01372        33.63971        -0.46307
H         22.05996        35.44422         0.13250
H         22.09076        37.86139         0.38076
H         22.01979        39.69327        -0.32807
H         22.00999        42.04474        -0.89797
H         21.99217        43.99413        -0.26881
H         22.02017        46.45385        -0.07558
H         25.35020        23.58739         0.44353
H         23.25294        24.81827         0.51469
H         25.37405        49.80784         0.22094
H         23.28313        48.53273         0.22654
H         26.99778        22.65932         0.74658
H         27.03736        50.85732        -0.46031
H         29.08182        21.42816         0.75130
H         29.11934        52.04549         0.02481
H         32.79702        19.23711         0.25910
H         30.71451        20.45292         0.42914
H         32.76046        54.12980         0.91582
H         30.69223        52.84564         0.87894
H         34.43693        18.28368         0.19496
H         34.41322        55.10872         0.80078
H         36.52661        17.07105         0.17750
H         36.50595        56.32024         0.94686
H         40.30140        14.92201         0.24296
H         38.17035        16.11655         0.21519
H         40.24425        58.34493         1.92384
H         38.16004        57.28004         1.27308
H         42.74955        14.90097         0.53628
H         42.77016        58.35082         1.88071
H         44.88804        16.10799         0.76502
H         44.86511        57.21005         1.37466
H         48.61409        18.25886         0.89338
H         46.50460        17.07635         1.11041
H         48.62655        55.07294         0.96214
H         46.53614        56.26821         1.19147
H         50.24846        19.16953         0.59038
H         50.27429        54.07230         0.77722
H         52.34559        20.35518         0.34311
H         52.33720        52.81849         0.75399
H         56.02996        22.45381         0.66137
H         53.88505        21.35280         0.77954
H         56.01736        50.71707         0.14985
H         53.93540        51.87381         0.42328
H         57.79574        23.42394         0.65367
H         57.63906        49.74220         0.09448
H         59.82373        24.75473         0.96895
H         60.86918        26.93517         1.60265
H         60.90821        29.38490         1.44607
H         61.02401        31.27365         0.73633
H         61.00363        33.71601         0.49367
H         60.99303        35.45575        -0.37011
H         60.93440        37.80374        -1.01603
H         60.71737        39.40373        -2.03879
H         60.46599        41.59050        -3.18892
H         60.45923        44.68508        -3.22382
H         60.72564        46.88364        -2.08338
H         59.66440        48.75016        -0.84033
