         470
 CSIRO Nanostructure Databank - Neutral Graphene Oxide Data Set
C         37.85470        50.07133         0.85700
C         36.73670        50.85490         0.70895
C         37.88175        52.79668         1.59984
C         36.76468        52.24339         1.05472
C         40.30650        48.46841         0.90621
C         40.29732        49.86705         1.22960
C         39.09144        50.59685         1.34639
C         40.45802        52.69132         2.04504
C         39.08520        51.98911         1.83918
C         40.48313        54.17076         1.87334
C         42.74434        48.43507         0.61629
C         41.46331        47.78573         0.64351
C         42.77655        49.84467         0.94976
C         41.57353        50.53358         1.31826
C         42.91814        52.53037         1.68380
C         41.65884        51.88667         1.73322
C         42.39024        54.44912         0.16125
C         41.27117        54.91792         1.06989
C         45.03996        45.74813        -0.63197
C         43.90321        46.41475        -0.23708
C         45.27807        48.39586         0.39106
C         43.91403        47.76583         0.21375
C         45.32010        49.96652         0.52390
C         43.94269        50.59713         0.68397
C         44.93933        52.83784         0.17252
C         43.94023        51.99244         0.87352
C         44.95946        54.32156         0.35943
C         43.76156        55.05803         0.40385
C         45.04030        57.08677         0.83648
C         43.82980        56.45155         0.64601
C         47.55646        44.30051        -1.20019
C         47.49751        45.72640        -1.12740
C         46.30934        46.41437        -0.77725
C         47.54172        48.57725        -0.71110
C         46.34395        47.81772        -0.50537
C         47.50868        50.01015        -0.65091
C         46.12483        50.62449        -0.64112
C         47.36312        52.96868        -0.62111
C         46.08979        52.16928        -0.50805
C         47.43447        54.32157        -0.00525
C         46.22064        54.99526         0.36767
C         47.53858        57.03040         0.86084
C         46.26426        56.38636         0.68424
C         47.60607        58.44232         1.17084
C         50.04463        44.26196        -1.32756
C         48.72402        43.59683        -1.29914
C         50.05129        45.77033        -1.39360
C         48.72009        46.51738        -1.54382
C         49.97112        48.62116        -0.89657
C         48.75437        47.91172        -0.98118
C         49.93877        50.04323        -0.79199
C         48.68260        50.73807        -0.77699
C         49.91704        52.95245        -0.51117
C         48.66345        52.22810        -0.79844
C         49.93806        54.28102        -0.14165
C         48.67810        54.96761         0.14898
C         50.01967        56.88877         1.07548
C         48.72266        56.30105         0.66573
C         50.02875        58.33083         1.57741
C         48.77071        59.07705         1.44256
C         52.39923        41.46199        -0.38882
C         51.24466        42.16040        -0.61161
C         52.39412        44.32096        -0.50097
C         51.24506        43.59129        -0.77325
C         52.41849        45.76346        -0.59726
C         51.25122        46.48712        -0.90900
C         52.41968        48.63795        -0.57703
C         51.22525        47.91394        -0.82275
C         52.37692        50.06905        -0.55824
C         51.17162        50.75160        -0.73180
C         52.42885        52.99217        -0.89223
C         51.15357        52.22863        -0.85574
C         52.42349        54.40758        -0.46144
C         51.21735        55.00106        -0.01823
C         52.50134        57.01209         0.54686
C         51.27759        56.30028         0.54507
C         52.59540        58.37883         1.13739
C         51.33932        59.07197         1.63381
C         52.48827        61.24983         1.43060
C         51.34948        60.54563         1.63755
C         54.91957        40.00154        -0.31971
C         54.85347        41.42933        -0.13268
C         53.65108        42.12948        -0.16212
C         54.85666        44.36032         0.16418
C         53.53016        43.60326         0.21653
C         54.87168        45.79480        -0.17649
C         53.64865        46.49108        -0.37468
C         54.89651        48.59924        -0.28128
C         53.65725        47.91332        -0.42348
C         54.90757        50.08438        -0.21302
C         53.62334        50.83826        -0.34453
C         54.89819        52.95195        -0.83166
C         53.69961        52.25992        -0.73507
C         54.81111        54.42957        -1.23624
C         53.64659        55.11141        -0.49337
C         54.88357        57.26417        -0.22680
C         53.65884        56.44525        -0.04832
C         54.95068        58.61549         0.36982
C         53.77515        59.22706         0.83289
C         54.92835        61.40233         0.88973
C         53.74419        60.62434         1.08049
C         54.94068        62.82548         1.02370
C         57.34543        39.97966        -0.79437
C         56.07710        39.32767        -0.59891
C         57.41949        41.41481        -0.39876
C         56.15832        42.12086         0.03604
C         57.39155        44.35934        -0.28284
C         56.17223        43.61965         0.10982
C         57.37232        45.74939        -0.25739
C         56.11156        46.47535        -0.16642
C         57.36734        48.66947         0.09231
C         56.10075        47.89840        -0.17906
C         57.39669        49.98224        -0.69726
C         56.13135        50.78229        -0.71273
C         57.37043        52.99031        -0.70722
C         56.14358        52.26152        -0.77289
C         57.38142        54.37695        -0.67729
C         56.21167        55.16926        -1.23219
C         57.43755        57.27387        -0.30095
C         56.16256        56.61619        -0.70234
C         57.40970        58.67129         0.06057
C         56.16743        59.34447         0.31066
C         57.38077        61.48885         0.56093
C         56.16022        60.74578         0.59025
C         57.35680        62.91461         0.67773
C         56.09843        63.55167         0.88183
C         59.69775        37.15899        -1.36838
C         58.53642        37.85835        -1.40240
C         59.74183        40.04372        -1.45899
C         58.48903        39.29269        -1.16843
C         59.78253        41.53778        -1.31555
C         58.58548        42.24746        -0.79315
C         59.79310        44.40623        -1.01858
C         58.58017        43.61797        -0.66667
C         59.84767        45.82175        -0.62428
C         58.62302        46.51021        -0.35440
C         59.91515        48.61607         0.11577
C         58.62600        47.88340        -0.13003
C         59.91326        50.05080        -0.36888
C         58.69793        50.70717        -0.79072
C         59.87830        52.91741        -0.24515
C         58.67631        52.26845        -0.74946
C         59.74734        54.34605         0.20114
C         58.71833        55.09367        -0.66507
C         59.85391        57.19058         0.12309
C         58.62701        56.54880        -0.22802
C         59.89727        58.67009         0.13757
C         58.61911        59.39537         0.21905
C         59.85771        61.51083         0.70433
C         58.62100        60.78960         0.45392
C         59.82838        62.96938         0.68519
C         58.57762        63.65667         0.59001
C         59.78620        65.76439         0.32025
C         58.60486        65.07629         0.45042
C         62.38362        35.67703        -0.73858
C         62.25369        37.14959        -0.66190
C         60.95979        37.84274        -0.98280
C         62.33243        40.02581        -1.21165
C         61.04152        39.28192        -1.40956
C         62.27272        41.50731        -1.11127
C         61.10583        42.20540        -1.18389
C         62.38370        44.41674        -1.11623
C         61.09973        43.68633        -1.27666
C         62.36138        45.84447        -0.95043
C         61.09289        46.53157        -0.69289
C         62.34796        48.69170        -0.73320
C         61.11943        47.89392        -0.40540
C         62.34244        50.09764        -0.21882
C         61.10177        50.78748        -0.28819
C         62.31930        52.91024         0.17655
C         61.07839        52.23012        -0.14881
C         62.29168        54.34622         0.31405
C         61.08229        55.05094         0.22806
C         62.26667        57.14313         0.79207
C         61.04433        56.46997         0.29783
C         62.30228        58.59888         1.11452
C         61.14437        59.40292         0.60167
C         62.28137        61.53945         1.32865
C         61.03830        60.82632         0.94995
C         62.28247        63.02226         1.09461
C         61.03072        63.69027         0.67610
C         62.27840        65.76146         0.12622
C         61.05384        65.09860         0.39822
C         62.35456        67.15286        -0.21217
C         64.88586        35.76914        -0.58143
C         63.56285        35.04203        -0.66238
C         64.71730        37.20430        -0.11437
C         63.51736        37.94707        -0.59369
C         64.67253        40.11648        -0.10291
C         63.52977        39.30228        -0.69036
C         64.82392        41.48119        -0.74380
C         63.57101        42.21799        -1.14405
C         64.87292        44.35715        -1.09275
C         63.56602        43.68939        -1.10766
C         64.87474        45.87611        -0.93245
C         63.58005        46.55612        -0.77380
C         64.80110        48.62535        -0.11642
C         63.61019        47.93279        -0.47033
C         64.75570        50.01242         0.17214
C         63.53943        50.76449         0.07009
C         64.78059        52.89211         0.51686
C         63.52334        52.19670         0.28483
C         64.80530        54.34203         0.44075
C         63.55104        55.06849         0.39701
C         64.74071        57.24346         0.30060
C         63.54343        56.44458         0.57540
C         64.82964        58.66399         0.64680
C         63.67258        59.26474         1.42089
C         64.85828        61.52239         1.00722
C         63.60660        60.79884         1.36574
C         64.85439        62.91889         0.81977
C         63.59741        63.71234         0.87749
C         64.83759        65.65023        -0.26620
C         63.54324        64.98974         0.09943
C         64.83734        67.09999        -0.77373
C         63.50447        67.78056        -0.58119
C         66.90096        33.09702         1.27340
C         65.85373        33.73335         0.60223
C         67.19742        35.75594         0.45969
C         65.97340        35.06806         0.21719
C         67.26166        37.20320         0.30161
C         65.97954        37.94570         0.19117
C         67.18376        40.10631         0.12383
C         66.00591        39.40323        -0.00410
C         67.24775        41.54410        -0.09632
C         66.06511        42.24558        -0.44105
C         67.29410        44.35766        -0.51974
C         66.08294        43.63070        -0.66857
C         67.30364        45.80775        -0.42559
C         66.09593        46.53684        -0.44018
C         67.27744        48.55089         0.28855
C         66.06046        47.90190        -0.06648
C         67.26064        49.95201         0.76962
C         65.94551        50.70121         0.69353
C         67.21857        52.84011         1.05671
C         65.95300        52.17502         0.71489
C         67.25208        54.37869         0.91305
C         66.01564        55.03343         0.47096
C         67.33043        57.20708         0.29522
C         66.07007        56.46099         0.15217
C         67.30667        58.63409         0.37976
C         66.04352        59.33624         0.60993
C         67.29337        61.48762         0.74259
C         66.06472        60.78314         0.80934
C         67.28785        62.90443         0.73218
C         66.07506        63.62031         0.61894
C         67.26818        65.75285         0.26082
C         66.09431        65.03949         0.27050
C         67.29309        67.10854        -0.34839
C         65.99218        67.86376        -0.09077
C         67.21076        69.94788        -0.76366
C         66.08846        69.33631        -0.37017
C         68.73814        32.25453         3.37034
C         69.15012        32.99634         2.24726
C         68.14455        33.71854         1.43808
C         69.62801        35.71733         0.95495
C         68.33225        35.04081         0.94380
C         69.63880        37.19753         0.96970
C         68.40796        37.91478         0.59217
C         69.76661        40.15193         0.44635
C         68.40425        39.39603         0.57939
C         69.75604        41.53606        -0.05758
C         68.50058        42.23701        -0.15260
C         69.75352        44.37804        -0.58683
C         68.49606        43.63646        -0.38462
C         69.77550        45.80626        -0.25474
C         68.52138        46.48842        -0.12817
C         69.76470        48.48952         0.73145
C         68.48859        47.85964         0.23070
C         69.74740        49.99828         0.78816
C         68.54515        50.71910         0.79760
C         69.74097        52.90579         1.13411
C         68.49642        52.11980         0.95325
C         69.75520        54.35029         0.76745
C         68.54403        55.05394         0.64367
C         69.79657        57.10932         0.07828
C         68.52439        56.44468         0.32805
C         69.78941        58.66607         0.20807
C         68.52738        59.35696         0.49709
C         69.78732        61.48192         0.74177
C         68.55783        60.76854         0.70698
C         69.82591        62.90545         0.69114
C         68.55789        63.63419         0.83290
C         69.82668        65.80815         0.23228
C         68.55710        65.13502         0.58569
C         69.83595        67.19006        -0.12463
C         68.58778        67.80255        -0.69642
C         69.60369        70.24631        -1.28596
C         68.45148        69.24424        -1.30925
C         69.41551        71.35269        -2.14086
C         71.00997        31.51202         3.77173
C         69.65826        31.52750         4.12717
C         71.44720        32.24572         2.66686
C         70.51798        32.98742         1.92993
C         72.08066        35.74240         0.58983
C         70.85086        35.06211         0.87302
C         72.15459        37.09553         0.44921
C         71.01125        37.95059         0.75285
C         72.12250        39.97944        -0.21694
C         70.99295        39.35805         0.29714
C         72.14880        41.36262        -0.47688
C         70.98816        42.14655        -0.39213
C         72.27776        44.39916        -0.39626
C         71.05677        43.61340        -0.66352
C         72.24079        45.75530        -0.30156
C         71.00117        46.50450        -0.21005
C         72.01012        48.79784        -0.36307
C         70.98133        47.91248         0.02682
C         71.99093        50.13254        -0.02423
C         71.08730        50.63320         1.06954
C         72.27817        52.91127         0.85526
C         71.05018        52.15635         1.17400
C         72.24821        54.24605         0.64418
C         71.01622        55.01316         0.57785
C         72.26842        57.15143         0.13088
C         71.05437        56.38723         0.27378
C         72.29834        58.50599         0.28321
C         71.08123        59.25352         0.63668
C         72.30014        61.55123         0.81653
C         71.06610        60.77586         0.91837
C         72.26767        62.90007         0.64463
C         71.02696        63.63294         0.62717
C         72.23869        65.81705         0.55139
C         71.02932        65.08784         0.48490
C         72.21489        67.19855         0.48834
C         71.03223        67.88898         0.15348
C         71.69028        71.31096        -0.56200
C         70.77961        70.23790        -0.52235
C         71.46500        72.39548        -1.40276
C         70.32335        72.40654        -2.20961
O         61.91547        39.51399        -2.54082
O         56.62159        50.04005        -1.91226
O         54.27861        50.61279         0.98772
O         58.85264        51.52199        -1.98517
O         70.42818        52.60143         2.42810
O         67.89169        66.92470        -1.66918
O         68.59620        64.59293         1.95353
O         70.37821        44.03149        -1.89348
O         64.14882        64.78682        -1.24279
O         71.12916        69.25118         0.38776
O         71.05400        59.76835         1.99832
O         42.18064        53.67715        -0.75650
O         62.92382        61.22805         2.60477
O         50.34068        44.96984        -2.59863
O         60.28352        44.17211        -2.39636
O         70.40492        37.76127         2.06601
O         44.97166        52.64853        -1.31950
O         62.94970        63.77497         2.17683
O         64.47471        41.59104        -2.14804
O         51.71898        52.70672        -2.16253
O         47.96791        52.84951        -1.94648
O         55.33895        57.38940        -1.63912
O         70.97759        33.66884         0.78951
O         61.32739        37.60360         0.41790
O         65.30646        56.88914        -1.01144
O         61.97124        57.66002         2.17837
O         59.58627        40.90245        -2.63616
O         67.15004        53.73924         2.22079
O         39.67762        52.22682         3.17568
O         69.04470        40.01016         1.72523
O         69.81747        58.01121        -1.08231
O         60.87906        59.20160        -0.83597
O         66.45122        50.12084         1.97198
O         50.00346        57.21235         2.51020
O         55.63293        44.10791         1.39273
O         65.02824        37.48802         1.28046
O         65.07400        45.24956        -2.24113
O         57.05802        41.54342         1.03575
O         46.02810        50.30616         1.68995
O         52.27237        58.45284         2.57178
O         64.26092        40.36861         1.27831
H         64.31104        39.50410         1.75051
O         54.38782        54.43545        -2.62342
H         53.57030        53.89835        -2.70868
O         59.23133        55.08917        -2.01602
H         58.46458        55.26334        -2.61719
O         59.21878        54.36421         1.56082
H         59.92403        54.06047         2.17027
O         65.38679        35.88376        -1.95003
H         65.48569        34.97990        -2.31572
O         65.72669        67.73536         1.33121
H         66.37044        68.28222         1.82736
O         43.17414        53.62900         2.44564
H         42.42253        53.79534         3.05062
O         71.58715        50.14456         2.36627
H         71.21019        50.75426         3.04225
O         57.33139        49.09716         1.50609
H         56.96038        48.35919         2.03607
O         53.11447        43.59730         1.61520
H         53.93982        43.51136         2.14840
O         45.82009        47.88209         1.64711
H         46.10769        48.72703         2.13133
O         69.89904        48.04256         2.12525
H         70.62409        48.60148         2.51207
O         65.11555        67.08361        -2.18867
H         64.64647        66.30055        -2.55664
O         62.29922        48.85737        -2.21136
H         62.36185        47.96115        -2.60932
O         68.18040        69.09372        -2.72234
H         67.59959        68.30198        -2.82609
O         56.60974        55.34019        -2.62140
H         55.91841        55.90177        -3.04148
O         48.52901        46.74497        -2.98028
H         49.00085        46.00651        -3.43656
O         60.07319        48.68988         1.59097
H         59.19507        48.98070         1.94204
O         64.01466        58.92969         2.78510
H         63.45221        59.48979         3.36770
O         45.52301        50.25480        -1.88787
H         44.95042        51.01304        -2.16288
H         37.80758        49.02090         0.53873
H         35.81346        50.42325         0.29944
H         37.87885        53.84795         1.91806
H         35.86401        52.85319         0.89826
H         39.35958        47.91111         0.90740
H         39.73580        54.70929         2.48015
H         41.39631        46.70878         0.43896
H         41.11977        56.00949         1.10680
H         44.95118        44.69419        -0.92744
H         42.95267        45.86361        -0.26883
H         45.03652        58.15767         1.07504
H         42.90259        57.03992         0.69540
H         46.62175        43.72828        -1.11155
H         46.68747        59.04134         1.12360
H         48.67828        42.49937        -1.31387
H         48.76892        60.16791         1.56945
H         52.36138        40.36480        -0.42236
H         50.31591        41.60149        -0.78489
H         52.43969        62.34484         1.49488
H         50.41794        61.08989         1.84388
H         53.99254        39.41626        -0.25345
H         54.00784        63.36572         1.23119
H         56.02160        38.23944        -0.73941
H         56.05286        64.64445         0.98269
H         59.69089        36.06932        -1.51432
H         57.59526        37.32005        -1.58672
H         59.75055        66.84919         0.15406
H         57.66004        65.63294         0.38600
H         61.45616        35.09127        -0.82660
H         61.43372        67.75250        -0.16923
H         63.57610        33.94585        -0.76061
H         63.45632        68.84425        -0.85763
H         66.75517        32.07315         1.64389
H         64.92004        33.18030         0.43683
H         67.19602        71.04396        -0.87492
H         65.21369        69.94422        -0.08957
H         67.67873        32.25768         3.66296
H         68.52186        71.37502        -2.77886
H         71.72849        30.92609         4.36091
H         69.31474        30.95971         5.00228
H         72.50366        32.24245         2.36911
H         72.96006        35.12042         0.37419
H         73.07747        37.54227         0.05524
H         73.05562        39.41502        -0.34601
H         73.09733        41.82358        -0.78224
H         73.23782        43.87358        -0.28650
H         73.18046        46.30591        -0.14686
H         72.78791        48.43302        -1.05203
H         72.66186        50.83221        -0.54531
H         73.23890        52.37718         0.83701
H         73.19621        54.76789         0.45675
H         73.22055        56.62724        -0.03198
H         73.26332        59.03150         0.26519
H         73.26195        61.02843         0.90734
H         73.22031        63.43885         0.56082
H         73.19124        65.31417         0.75833
H         73.12517        67.78120         0.67933
H         72.58270        71.26904         0.07607
H         72.18178        73.22711        -1.43712
H         70.13552        73.24674        -2.89143
