         220
 CSIRO Nanostructure Databank - Neutral Graphene Oxide Data Set
C        -11.08692         0.82960        -1.34196
C         -9.81241         1.54153        -1.37915
C         -8.54973         0.86585        -1.16390
C         -7.40878         1.57815        -0.67987
C         -6.22213         0.87084        -0.32179
C         -5.05995         1.58854         0.12810
C         -3.85053         0.84762         0.46677
C         -2.62997         1.57051         0.83251
C         -1.39390         0.82281         1.09144
C         -0.13300         1.52615         1.30967
C          1.06510         0.83803         1.35735
C          2.36102         1.53697         1.12023
C          3.58881         0.74048         0.76977
C          4.91330         1.43045         0.68607
C          6.06699         0.65754         0.18416
C          7.23169         1.39248        -0.24337
C          8.56992         0.70829        -0.08625
C          9.87980         1.45942        -0.37324
C         11.03741         0.58843        -0.46241
C         -9.80327         2.93380        -1.37072
C         -8.61550         3.68617        -1.08780
C         -7.43922         2.99375        -0.64775
C         -6.28948         3.71014        -0.19299
C         -5.11858         2.98413         0.22618
C         -3.99789         3.67841         0.97104
C         -2.66287         2.95049         0.87045
C         -1.44176         3.72932         1.19987
C         -0.14426         3.01384         1.47127
C          1.17305         3.78072         1.50281
C          2.47691         3.01191         1.42866
C          3.70612         3.68261         0.90747
C          4.90216         2.90325         0.51841
C          6.05173         3.59109        -0.12132
C          7.10647         2.73010        -0.55722
C          9.02730         3.80903        -0.40499
C         10.08835         2.82000        -0.23119
C         -8.57463         5.09020        -1.21079
C         -7.41067         5.81374        -0.87406
C         -6.32272         5.12694        -0.27287
C         -5.13625         5.90777         0.13049
C         -3.92350         5.17565         0.64778
C         -2.58812         5.78268         0.43072
C         -1.43563         5.14636         0.74422
C         -0.15265         5.83796         0.48950
C          1.12708         5.20227         0.96747
C          2.22908         6.17653         1.12400
C          4.00285         4.99792         1.06290
C          4.86107         5.70569         0.04166
C          6.18623         4.97547        -0.10203
C          7.44595         5.71910        -0.11928
C          8.73910         5.02910         0.13464
C         -7.31884         7.24010        -1.15738
C         -6.11962         7.92267        -1.10862
C         -4.96624         7.19757        -0.59014
C         -3.71432         7.70637        -0.67010
C         -2.59606         7.24649         0.14871
C         -1.39059         8.12956         0.29690
C         -0.13392         7.31993         0.13778
C          1.17122         8.01503        -0.09855
C          2.38436         7.32747         0.40056
C          3.69993         7.94995         0.20850
C          4.87070         7.21489         0.13624
C          6.10876         7.83275        -0.48220
C          7.38024         7.09189        -0.13401
C         -6.05351         9.37759        -1.29276
C         -5.00761        10.25389        -1.15051
C         -3.60088         9.87239        -1.01918
C         -2.55912        10.42678        -0.34320
C         -1.29311         9.69732         0.15684
C          0.04937        10.19953        -0.36860
C          1.21477         9.49869        -0.22131
C          2.53707        10.09513        -0.28723
C          3.70301         9.38607        -0.08554
C          5.01081        10.03390        -0.14795
C          6.15322         9.32146        -0.25986
C        -11.32035        -0.50165        -1.10852
C        -10.28759        -1.51609        -1.20396
C         -8.40377        -0.51180        -1.35271
C         -7.37280        -1.26420        -0.75447
C         -6.22168        -0.54690        -0.31932
C         -5.03613        -1.27122         0.01645
C         -3.83275        -0.54107         0.36084
C         -2.62923        -1.29737         0.68305
C         -1.40731        -0.57892         1.04087
C         -0.18728        -1.34502         1.17765
C          1.08281        -0.63676         1.40535
C          2.40069        -1.44776         1.23947
C          3.64849        -0.73450         0.87271
C          4.80385        -1.41877         0.56022
C          6.01078        -0.72127         0.15905
C          7.16712        -1.45476        -0.40657
C          8.49636        -0.70200        -0.65020
C          9.73231        -1.49980        -0.69975
C         10.97657        -0.76918        -0.61727
C        -10.05807        -2.66995        -0.49595
C         -8.76911        -3.35890        -0.47346
C         -7.50039        -2.68027        -0.54323
C         -6.30302        -3.38255        -0.20331
C         -5.07189        -2.66826        -0.03728
C         -3.77368        -3.41733        -0.03544
C         -2.64214        -2.66955         0.61552
C         -1.48084        -3.47113         1.13658
C         -0.17791        -2.73042         1.02218
C          1.02702        -3.46434         0.73920
C          2.29107        -2.83802         0.78048
C          3.49418        -3.53183         0.38704
C          4.82464        -2.92109         0.84656
C          6.12863        -3.70155         0.35080
C          7.23995        -2.89219        -0.28663
C          8.40252        -3.58467        -0.71396
C          9.65068        -2.86640        -0.85895
C         -8.76522        -4.73225        -0.14472
C         -7.58638        -5.45935         0.06847
C         -6.34628        -4.78888         0.05086
C         -5.12640        -5.50363         0.36309
C         -3.89957        -4.85211         0.41025
C         -2.67268        -5.58267         0.52064
C         -1.46215        -4.88985         0.62392
C         -0.25920        -5.57353         0.32769
C          0.93116        -4.81984         0.26022
C          2.07828        -5.34643        -0.47345
C          3.39710        -4.76839        -0.20667
C          4.56736        -5.49074        -0.74259
C          5.90213        -4.86590        -0.60830
C          7.13267        -5.70430        -0.79229
C          8.36291        -4.99470        -0.88002
C         -7.68936        -6.93350         0.41652
C         -6.36596        -7.67686         0.42645
C         -5.17281        -6.92588         0.62515
C         -3.94818        -7.57431         0.90834
C         -2.67118        -7.02638         0.58372
C         -1.48870        -7.78284         0.36157
C         -0.30056        -6.99773        -0.01653
C          0.76436        -7.50583        -0.75527
C          1.97709        -6.73256        -1.10130
C          3.26171        -7.49172        -1.24198
C          4.48030        -6.96033        -0.95908
C          5.70389        -7.72244        -0.44151
C          7.00464        -7.07394        -0.85954
C         -6.35070        -9.03444         0.06153
C         -5.20971        -9.84153        -0.12995
C         -3.97292        -9.56496         0.46943
C         -2.64844       -10.02163         0.18352
C         -1.49814        -9.24274         0.35057
C         -0.24162       -10.00547         0.51672
C          0.89690        -9.74241        -0.17051
C          2.23164       -10.27902         0.05283
C          3.32715        -9.75931        -0.57997
C          4.73386       -10.11087        -0.39958
C          5.75497        -9.23543        -0.52355
O         -1.72335        -3.61323         2.59288
H         -0.85438        -3.73962         3.03066
O         -4.02029        -8.76310         1.63994
O          8.68511         0.48319         1.36207
H          8.46382         1.31761         1.82778
O         -9.30967        -1.18984        -2.17259
O          0.40700         7.45641        -1.22616
O          6.67654        -4.36210         1.51777
H          6.15793        -3.94926         2.28039
O          5.64122        -7.49574         1.01949
H          5.98141        -6.59119         1.21770
O          1.94772         3.49263         2.69649
O          4.18536         5.43997        -1.24039
H          4.68196         5.95644        -1.91936
O          5.92439         7.63280        -1.94344
H          5.23953         8.27247        -2.23629
O          5.33619         2.25170         1.82746
O         -3.38370        -3.50093        -1.46652
H         -4.12156        -3.93651        -1.94453
O         -2.25109         7.88493         1.45395
O          1.79512        -5.55442        -1.93590
O         -4.78706         5.95315         1.56413
O          5.19452        -4.68446        -1.85819
O         -4.34590         3.56102         2.38301
H         -4.77246         4.41204         2.64230
O          0.70167         5.10217        -0.44111
O         -8.64542        -7.56867        -0.44147
H         -8.36415        -7.43135        -1.36896
O          0.77265        -8.80959        -1.22869
O          3.28197         5.79636         1.95656
O         -1.20069        10.15227         1.54136
H         -1.86862         9.64356         2.05759
O          4.79568        -2.98638         2.25123
O          2.70678         1.26230        -0.30390
O          1.85120        -1.15453         2.55330
O         -3.35878         8.63210        -1.65120
O          8.08970         3.32456        -1.34594
O          7.59062        -0.92084        -1.73730
O         -0.98718         3.48890         2.58100
O          3.11589        -8.82955        -1.60663
H         11.91263        -1.34121        -0.70304
H         12.02705         1.07150        -0.45132
H         11.12956         3.17306        -0.13395
H          9.45871         5.52915         0.80004
H          8.30660         7.67845        -0.03285
H          7.12543         9.83506        -0.30977
H          5.04517        11.13304        -0.09316
H          2.60139        11.17622        -0.48877
H          0.10924        11.28847        -0.52755
H         -2.71898        11.40090         0.14525
H         -5.24768        11.32944        -1.14755
H         -7.04329         9.84194        -1.44408
H         -8.23428         7.75967        -1.47958
H         -9.44611         5.62487        -1.61667
H        -10.74113         3.48417        -1.54274
H        -11.96834         1.49204        -1.31080
H        -12.34478        -0.81403        -0.85103
H        -10.85213        -3.07842         0.14768
H         -9.72666        -5.26073        -0.06417
H         -8.11902        -7.00368         1.45773
H         -7.31233        -9.43847        -0.29526
H         -5.28725       -10.69681        -0.81815
H         -2.51262       -11.06425        -0.14651
H         -0.24900       -10.80831         1.26985
H          2.36200       -11.03412         0.84001
H          4.97113       -11.17197        -0.21581
H          6.77404        -9.64344        -0.41322
H          7.90181        -7.70327        -0.97758
H          9.29157        -5.53966        -1.10922
H         10.57110        -3.45674        -0.98518
