         424
 CSIRO Nanostructure Databank - Neutral Graphene Oxide Data Set
C          1.34273         2.05132         0.90503
C          1.22626         3.39859         0.72974
C          2.54626         1.36286         0.58859
C          2.30035         4.19476         0.03626
C          1.26936         6.33440         0.90984
C          1.30434         7.72248         1.12580
C          2.38974         5.64482         0.46816
C          2.46412         8.46716         0.90328
C          1.27633        10.64932         1.06898
C          1.23849        12.06316         0.95377
C          2.45259         9.92138         1.02938
C          2.37285        12.81955         0.70891
C          1.18753        15.01374         0.60139
C          1.22261        16.42584         0.62455
C          2.32886        14.23495         0.40377
C          2.39178        17.13731         0.37295
C          2.57111        18.51144         0.75844
C          3.68990         2.06841         0.18722
C          3.64245         3.49862         0.03385
C          4.93446         1.39448         0.01785
C          4.80318         4.23124        -0.24358
C          3.61001         6.35882         0.25243
C          3.65914         7.78236         0.48658
C          4.75687         5.66721        -0.22116
C          4.87683         8.49139         0.31378
C          3.73074        10.65486         1.05941
C          3.69006        12.16042         0.81466
C          5.03496         9.88105         0.89451
C          4.90261        12.84354         0.30011
C          3.53562        14.86759        -0.13732
C          3.53753        16.44601        -0.21560
C          4.85178        14.18894        -0.07281
C          4.82083        17.11798        -0.30150
C          3.77870        19.13815         0.64640
C          4.94837        18.47484         0.09284
C          6.10700         2.08584        -0.27278
C          6.07750         3.53927        -0.43882
C          7.35135         1.39849        -0.31239
C          7.24945         4.21767        -0.70378
C          5.92615         6.44610        -0.62099
C          6.01890         7.85155        -0.20198
C          7.26280         5.67639        -0.90358
C          7.26548         8.53447        -0.32276
C          6.13278        10.68011         0.22118
C          6.11526        12.09818         0.13266
C          7.29331         9.96861        -0.14793
C          7.31477        12.81228        -0.21076
C          6.04469        14.89561        -0.44149
C          5.98158        16.34351        -0.78234
C          7.27898        14.23304        -0.46183
C          7.25824        17.10601        -1.04930
C          6.14776        19.16962        -0.08865
C          7.24293        18.64172        -0.98453
C          8.56140         2.06332        -0.53187
C          8.53415         3.48839        -1.03047
C          9.79387         1.40699        -0.43120
C          9.79622         4.26154        -0.70941
C          8.52066         6.40991        -0.75178
C          8.47451         7.81817        -0.60654
C          9.77698         5.68762        -0.71570
C          9.71499         8.55204        -0.62110
C          8.52096        10.68578        -0.29332
C          8.53322        12.09926        -0.25905
C          9.72856         9.92153        -0.45342
C          9.83190        12.86922        -0.21256
C          8.52123        14.96370        -0.73605
C          8.53363        16.37441        -0.89075
C          9.75820        14.28014        -0.74706
C          9.75614        17.08446        -0.88084
C          8.58165        19.23634        -0.63855
C          9.76062        18.54217        -0.70490
C         11.02552         2.11109        -0.51489
C         11.01246         3.56446        -0.60513
C         12.24286         1.42889        -0.40800
C         12.25776         4.26859        -0.54049
C         11.01382         6.38659        -0.78192
C         10.96117         7.83634        -0.97620
C         12.27004         5.70301        -0.67215
C         12.31092         8.62325        -1.00221
C         10.99999        10.65759        -0.16268
C         10.94077        12.03026        -0.86913
C         12.27830         9.94841        -0.45430
C         12.28460        12.75173        -0.92338
C         10.96944        14.98116        -0.93012
C         10.97951        16.38709        -0.94281
C         12.26779        14.25382        -1.01782
C         12.27713        17.14004        -1.15952
C         11.02667        19.19781        -0.47814
C         12.24355        18.55234        -0.61869
C         13.48193         2.11906        -0.34635
C         13.47895         3.55654        -0.40678
C         14.70486         1.42714        -0.20777
C         14.71830         4.25841        -0.27623
C         13.50934         6.39654        -0.62640
C         13.61922         7.84370        -1.07075
C         14.73262         5.71021        -0.39598
C         14.78859         8.57329        -0.45300
C         13.49901        10.66593         0.03210
C         13.51858        12.10128        -0.45544
C         14.77458         9.94090        -0.26630
C         14.70763        12.80805        -0.38920
C         13.51727        14.98012        -0.71050
C         13.50926        16.38263        -0.70732
C         14.72241        14.25452        -0.51984
C         14.72594        17.08555        -0.55223
C         13.47798        19.20880        -0.36446
C         14.71627        18.54226        -0.40171
C         15.91843         2.12066        -0.02622
C         15.89972         3.54584        -0.02482
C         17.17160         1.42644         0.09929
C         17.10676         4.30750         0.46303
C         15.96199         6.41532        -0.30014
C         16.00719         7.83871        -0.28194
C         17.26101         5.64715        -0.25134
C         17.20196         8.54084         0.04027
C         15.98132        10.68411        -0.09724
C         15.95939        12.10471        -0.14703
C         17.20670         9.96874         0.06695
C         17.18258        12.82406        -0.11581
C         15.95038        14.96464        -0.42860
C         15.93972        16.37518        -0.48356
C         17.19979        14.24408        -0.26623
C         17.22255        17.13154        -0.69247
C         15.93496        19.21363        -0.14220
C         17.18486        18.55558        -0.18385
C         18.38869         2.08545         0.26523
C         18.40973         3.53948         0.42167
C         19.63548         1.38485         0.25369
C         19.57461         4.21258         0.62662
C         18.40962         6.42865         0.34430
C         18.39472         7.79189         0.38639
C         19.57359         5.68855         0.96493
C         19.61670         8.51883         0.81964
C         18.40103        10.71077         0.25724
C         18.41114        12.10944         0.09707
C         19.63405        10.01838         0.67110
C         19.66035        12.81990         0.11458
C         18.42898        14.94572        -0.21352
C         18.45950        16.37464        -0.28587
C         19.66442        14.22440        -0.05955
C         19.65753        17.07701        -0.16952
C         18.39592        19.20754         0.05289
C         19.65792        18.52684        -0.02838
C         20.85407         2.02906         0.47217
C         20.84619         3.46768         0.94274
C         22.10101         1.37550         0.31894
C         22.10087         4.19158         0.43428
C         20.90201         6.39581         0.72123
C         20.91049         7.80211         0.72688
C         22.12188         5.68582         0.68790
C         22.12639         8.52826         0.64126
C         20.91933        10.70036         0.46586
C         20.89820        12.09717         0.23446
C         22.13487         9.97012         0.50376
C         22.13263        12.79530         0.09904
C         20.90686        14.92639        -0.15580
C         20.91566        16.37347        -0.19954
C         22.11218        14.19651        -0.12616
C         22.10894        17.09816        -0.25280
C         20.86951        19.20478         0.09552
C         22.13439        18.53629        -0.06722
C         23.34346         2.03075         0.44124
C         23.37493         3.47344         0.91480
C         24.55658         1.38113         0.17905
C         24.61424         4.22685         0.49418
C         23.34976         6.37656         0.67842
C         23.36345         7.80997         0.66052
C         24.61284         5.63873         0.57332
C         24.59442         8.52759         0.62155
C         23.37309        10.66029         0.33370
C         23.37298        12.07542         0.14008
C         24.61595         9.92344         0.42963
C         24.60164        12.79888         0.04535
C         23.37408        14.87852        -0.41636
C         23.37204        16.39813        -0.50908
C         24.63322        14.18437        -0.12320
C         24.64596        17.09821        -0.32825
C         23.34173        19.22523        -0.08883
C         24.62390        18.58251        -0.56580
C         25.80464         2.05945         0.20085
C         25.82268         3.51632         0.36910
C         27.00393         1.38632        -0.06967
C         27.04270         4.21773         0.34277
C         25.84019         6.33597         0.52975
C         25.87619         7.78999         0.92189
C         27.06037         5.62849         0.41279
C         27.13148         8.50362         0.48144
C         25.86569        10.61701         0.36088
C         25.90339        12.05618        -0.08721
C         27.10223         9.94218         0.43532
C         27.04307        12.82739         0.55999
C         25.85879        14.93840        -0.09934
C         25.83691        16.38425        -0.20760
C         27.08355        14.27102         0.10899
C         27.08802        17.09847        -0.14071
C         25.89626        19.25610        -0.14188
C         27.09042        18.56039        -0.07897
C         28.26511         2.04035        -0.03753
C         28.32273         3.44991         0.50510
C         29.45574         1.38974        -0.32277
C         29.54302         4.21628         0.06918
C         28.32274         6.34674         0.27111
C         28.31365         7.79890         0.25565
C         29.50483         5.63819         0.04409
C         29.56414         8.51263         0.07673
C         28.33669        10.67569         0.39946
C         28.35099        12.09689         0.39940
C         29.58429         9.95785         0.25671
C         29.54444        12.82145         0.36556
C         28.30976        14.96388         0.03953
C         28.28689        16.38633        -0.11234
C         29.56556        14.24165         0.17375
C         29.54928        17.12547        -0.30286
C         28.34612        19.24210         0.09328
C         29.57380        18.57966        -0.02293
C         30.72594         2.06525        -0.26027
C         30.74243         3.51073        -0.09822
C         31.92372         1.38107        -0.41763
C         32.00444         4.19774        -0.04987
C         30.74918         6.35518        -0.41682
C         30.76680         7.82109        -0.08046
C         32.02047         5.64611        -0.02301
C         32.02629         8.49650        -0.03829
C         30.78193        10.64870         0.24689
C         30.82188        12.08649         0.67232
C         32.03994         9.98457        -0.23259
C         32.07780        12.80851         0.28094
C         30.80225        14.91022         0.07815
C         30.84398        16.34865        -0.22802
C         32.05570        14.21098         0.16248
C         32.09136        17.09118        -0.01413
C         30.82563        19.22352         0.07573
C         32.06608        18.52205         0.04230
C         33.19673         2.04187        -0.28778
C         33.20568         3.47727        -0.03881
C         34.38952         1.35744        -0.38468
C         34.45518         4.16716         0.11419
C         33.19107         6.34540         0.16316
C         33.22638         7.79407         0.10642
C         34.43038         5.59777         0.58543
C         34.48337         8.49267         0.30272
C         33.30946        10.66402         0.20320
C         33.30074        12.09570         0.23656
C         34.49725         9.95024         0.32799
C         34.53612        12.80423         0.19554
C         33.29414        14.93116         0.06287
C         33.30015        16.36735         0.04148
C         34.52797        14.22896         0.10195
C         34.54644        17.06801        -0.00439
C         33.30607        19.20388         0.14584
C         34.53553        18.51724         0.08922
C         35.69972         1.99951        -0.02493
C         35.66062         3.50830        -0.04180
C         36.88910         1.44297        -0.74798
C         36.90226         4.24053        -0.10270
C         35.70463         6.35567         0.32935
C         35.67621         7.78059         0.45246
C         36.89945         5.66891         0.10756
C         36.94701         8.47546         0.88274
C         35.75340        10.66310         0.41156
C         35.76707        12.08353         0.26633
C         36.97904         9.96206         0.56431
C         37.00528        12.79809         0.23149
C         35.76750        14.94333         0.00521
C         35.75140        16.35436        -0.11051
C         37.01182        14.22452         0.08085
C         37.01009        17.09332        -0.48320
C         35.76856        19.19484         0.20830
C         37.00916        18.53442        -0.00259
C         38.03825         2.18139        -0.88571
C         38.07925         3.58714        -0.50365
C         39.24296         1.57626        -1.41794
C         39.31763         4.31465        -0.61286
C         38.15718         6.40116         0.06915
C         38.18614         7.73787         0.41884
C         39.38123         5.69468        -0.26494
C         39.47507         8.40908         0.61256
C         38.19437        10.66806         0.55830
C         38.22881        12.08116         0.35923
C         39.47653         9.95186         0.74767
C         39.48195        12.79665         0.35172
C         38.24591        14.93365         0.09588
C         38.27424        16.35762        -0.08827
C         39.48149        14.22359         0.25727
C         39.46614        17.06132        -0.05289
C         38.20498        19.20888         0.03505
C         39.46631        18.53190        -0.41981
C         40.41327         2.26650        -1.47624
C         40.48962         3.64477        -1.05778
C         41.71391         4.34679        -1.10196
C         40.63163         6.37281        -0.27494
C         40.70854         7.75398         0.16746
C         41.78681         5.67059        -0.70222
C         41.88581         8.49269         0.17698
C         40.73979        10.64794         0.48876
C         40.72241        12.09691         0.41657
C         41.90027         9.89507         0.35166
C         41.92469        12.83561         0.43718
C         40.71279        14.94423         0.31314
C         40.71155        16.39663         0.23627
C         41.91872        14.22128         0.41066
C         41.85818        17.15993         0.44796
C         40.69937        19.26040         0.02829
C         41.82047        18.58854         0.39990
O         30.23099        16.72105        -1.53468
O          3.27744        15.58694        -1.37080
O          3.86669        11.59646         2.17975
O         11.51548         8.37705        -2.22632
O         19.48855         9.36487         2.00033
O         39.54655         9.08183         1.93114
O          6.40408         6.16676        -1.97587
O         23.36062        15.55811        -1.73128
O         12.43344        13.42786        -2.23651
O          6.44264        16.61863        -2.17042
O          6.91192        19.14671        -2.31648
H          6.41711        18.42056        -2.76782
O         39.44843        18.58571        -1.90883
H         40.28478        18.17705        -2.21981
O         13.98699         7.74887        -2.48604
H         13.13787         7.72604        -2.98940
O         23.47985         3.46747         2.35958
H         22.60625         3.19791         2.72999
O         19.37760         5.77777         2.41267
H         20.08081         5.22535         2.82651
O         10.94778        10.84105         1.29539
H         10.84041         9.95295         1.69677
O         24.58887        18.72365        -2.05155
H         23.99800        18.01860        -2.39675
O          5.53934         9.63940         2.25151
H          5.27345        10.42745         2.78196
O         22.04984         4.04994        -1.01110
H         22.84975         4.47474        -1.38623
O         36.94690         8.37923         2.35177
H         37.84937         8.66863         2.64021
O         20.87110         3.43167         2.41739
H         20.12834         2.85737         2.70261
O          8.54289         3.38835        -2.50158
H          7.70704         2.95143        -2.77091
O         17.33228        17.25323        -2.16195
H         18.15254        17.75785        -2.35014
O         13.51594        10.73528         1.50525
H         12.65989        11.15010         1.77881
O         26.19756        12.01757        -1.51938
H         25.42073        11.63769        -1.98050
O         30.70260         6.29491        -1.89494
H         31.53590         6.69304        -2.22619
O         12.42020        17.27747        -2.61092
H         12.53265        16.37824        -2.98661
O         35.91260         1.64624         1.40696
H         35.25724         2.16124         1.92634
O         17.61765         5.34118        -1.63610
H         17.50201         6.15608        -2.16860
O         25.95288         7.77676         2.40215
H         26.62992         7.11278         2.65487
O          1.88752         4.25307        -1.38609
H          1.85636         3.32861        -1.71301
O         10.17190        13.10734         1.18811
H          9.38331        13.49281         1.62352
O         37.01668        17.15254        -1.94530
H         37.80763        17.69377        -2.19956
O         26.76271        12.86472         1.99206
H         27.49266        13.34980         2.43072
O         30.87649        12.04486         2.16672
H         30.10971        11.50858         2.46475
O         34.35284         5.49857         2.06241
H         34.59636         6.37816         2.42547
O         32.01958        10.18391        -1.70836
H         31.16791         9.82094        -2.03532
O         10.51762        11.75493        -2.21115
H         11.02698        12.35208        -2.80957
O         16.82020         4.61279         1.85733
H         16.70692         3.76693         2.33763
O         28.48011         3.29714         1.96823
H         29.28640         2.75754         2.11581
H          0.50057         1.47873         1.32068
H          0.26833         3.88569         0.95751
H          2.60452         0.27496         0.73105
H          0.31651         5.81256         1.06797
H          0.38520         8.21802         1.46536
H          0.31040        10.12662         1.09650
H          0.24997        12.54210         0.93636
H          0.25632        14.52722         0.92354
H          0.33598        16.96516         0.98855
H          1.70764        19.05101         1.17485
H          4.97169         0.30452         0.16208
H          3.88301        20.18751         0.95760
H          7.36372         0.32273        -0.07873
H          6.19070        20.23251         0.19311
H          9.81332         0.32890        -0.20887
H          8.60716        20.32330        -0.46577
H         12.23883         0.33092        -0.33680
H         11.00980        20.25681        -0.17610
H         14.70347         0.32697        -0.20698
H         13.45882        20.27963        -0.10694
H         17.16680         0.32933         0.01072
H         15.90755        20.28912         0.09405
H         19.63194         0.31214         0.00485
H         18.39306        20.27934         0.30567
H         22.09626         0.31690         0.01168
H         20.86583        20.29574         0.24018
H         24.54599         0.30971        -0.07771
H         23.32989        20.32038         0.02450
H         26.97110         0.31344        -0.31650
H         25.90429        20.35437        -0.06573
H         29.44188         0.32476        -0.60215
H         28.33424        20.33282         0.23918
H         31.91110         0.29417        -0.58922
H         30.84911        20.31512         0.21125
H         34.37977         0.26945        -0.55354
H         33.30912        20.30011         0.23521
H         36.87869         0.38310        -1.04484
H         35.77129        20.27549         0.41851
H         39.19884         0.52436        -1.73622
H         38.23709        20.27509         0.30722
H         41.32825         1.78302        -1.84903
H         42.61962         3.82700        -1.44620
H         42.75949         6.17962        -0.72738
H         42.84050         8.00702        -0.06646
H         42.86854        10.40143         0.23830
H         42.88905        12.31497         0.50110
H         42.87957        14.75194         0.44316
H         42.80958        16.67916         0.71015
H         40.69536        20.35910        -0.02065
H         42.73005        19.14330         0.67306
