         261
 CSIRO Nanostructure Databank - Neutral Graphene Oxide Data Set
C        -11.22093         0.71424        -0.74467
C         -9.98078         1.49927        -1.00242
C         -8.69891         0.74437        -0.94896
C         -7.42503         1.49317        -0.62182
C         -6.22786         0.73691        -0.16534
C         -5.19400         1.41936         0.73746
C         -3.82879         0.77137         0.41030
C         -2.57143         1.55980         0.59860
C         -1.24817         0.82159         0.52462
C         -0.05229         1.46161         1.15313
C          1.25516         0.70529         1.08737
C          2.50814         1.45891         0.81978
C          3.58649         0.67022         0.13515
C          4.83542         1.39904        -0.37312
C          6.04080         0.69058         0.23813
C          7.28377         1.46686         0.48481
C          8.47601         0.65781         0.78734
C         10.29720         1.62034        -0.03091
C         11.18761         0.60664        -0.62822
C         -9.93289         2.98916        -0.91900
C         -8.78839         3.68090        -0.62736
C         -7.59773         2.94650        -0.03308
C         -6.22357         3.68282        -0.17239
C         -5.07185         2.92862         0.40519
C         -3.95285         3.66621         1.09120
C         -2.63993         2.94007         1.21537
C         -1.35691         3.72467         1.36663
C         -0.05942         2.94731         1.31087
C          1.22374         3.69635         1.05293
C          2.33625         2.89900         0.41180
C          3.47998         3.57947        -0.27257
C          4.80441         2.89417        -0.04091
C          6.08523         3.66333         0.03931
C          7.36794         2.86604        -0.07707
C          8.65152         3.55367        -0.46744
C          9.95938         2.79677        -0.63586
C         -8.70807         5.13159        -0.62736
C         -7.55909         5.84685        -0.37710
C         -6.19680         5.20550        -0.23407
C         -5.34301         5.91544         0.83363
C         -4.01449         5.18696         1.17220
C         -2.70929         5.95251         1.23130
C         -1.37432         5.22619         1.28775
C         -0.12860         5.92356         0.79139
C          1.18968         5.18152         0.85017
C          2.28664         5.86962         0.06759
C          3.45232         5.07649        -0.43835
C          4.76488         5.73172        -0.78535
C          6.08590         5.04072        -0.56359
C          7.34981         5.83022        -0.53451
C          8.69553         5.09613        -0.39798
C         -7.49639         7.28938        -0.47383
C         -6.32060         7.98196        -0.30447
C         -5.05359         7.23161         0.05764
C         -3.95081         8.11404         0.62182
C         -2.65930         7.44726         1.02598
C         -1.35714         8.19341         0.88116
C         -0.09275         7.40925         0.61605
C          1.24197         8.17387         0.79706
C          2.55079         7.34168         0.39829
C          3.45836         7.96786        -0.66997
C          4.74227         7.22395        -0.96757
C          6.06512         7.95850        -0.93742
C          7.31080         7.18084        -0.67963
C         -6.19265         9.37195        -0.70041
C         -5.03495        10.07247        -0.59516
C         -3.88578         9.55026         0.17830
C         -2.56094        10.21419         0.09736
C         -1.38875         9.60124         0.39033
C         -0.08507        10.38916         0.45512
C          1.17856         9.58231         0.18725
C          2.29359        10.20325        -0.26553
C          3.50103         9.46214        -0.72733
C          4.83276        10.11065        -0.73890
C          5.99789         9.42311        -0.70952
C        -11.22901        -0.60831        -0.47095
C         -9.99481        -1.41727        -0.25864
C         -8.68994        -0.70438        -0.51698
C         -7.44373        -1.50784        -0.74411
C         -6.19555        -0.77795        -0.32681
C         -5.03755        -1.51901         0.26615
C         -3.76903        -0.74229         0.49630
C         -2.44014        -1.45530         0.35382
C         -1.20844        -0.62722         0.14714
C          0.10530        -1.37701         0.13854
C          1.13788        -0.81617         1.09315
C          2.50301        -1.54305         1.03870
C          3.64161        -0.81707         0.33685
C          4.88115        -1.55841        -0.17328
C          6.16075        -0.77327        -0.12520
C          7.46576        -1.50047         0.08489
C          8.50414        -0.68962         0.77816
C         10.34537        -1.74407         0.07287
C         11.19590        -0.76683        -0.62157
C        -10.00384        -2.89146        -0.27947
C         -8.85032        -3.68477        -0.27683
C         -7.51429        -3.04650        -0.84376
C         -6.31030        -3.75585        -0.17698
C         -5.00405        -3.01944         0.11361
C         -3.67561        -3.70996        -0.02484
C         -2.37376        -2.93236         0.04406
C         -1.11363        -3.56010        -0.53279
C          0.18089        -2.81549        -0.27605
C          1.52513        -3.58991        -0.14929
C          2.54467        -3.02620         0.85002
C          3.94276        -3.68181         0.77212
C          4.93803        -3.06158        -0.21571
C          6.27174        -3.79093        -0.29853
C          7.54680        -3.01629        -0.07062
C          8.82891        -3.71698         0.40499
C         10.01323        -3.01688        -0.29132
C         -8.73004        -5.05328        -0.08145
C         -7.63880        -5.95196        -0.69854
C         -6.28387        -5.22192        -0.45202
C         -4.95655        -5.79851        -0.89238
C         -3.66723        -5.05326        -0.69709
C         -2.37244        -5.81918        -0.52921
C         -1.10436        -5.05027        -0.75459
C          0.17305        -5.85484        -0.68476
C          1.43154        -5.12246        -0.23159
C          2.46826        -5.95099         0.53840
C          3.82766        -5.21876         0.73464
C          5.10149        -5.96119         0.54048
C          6.25869        -5.31409        -0.18634
C          7.58990        -5.94710         0.16152
C          8.74960        -5.22987         0.22980
C         -7.52749        -7.27513         0.07976
C         -6.58756        -8.20811        -0.24233
C         -4.81228        -7.24692        -1.17944
C         -3.63850        -7.89945        -1.12645
C         -2.37134        -7.30322        -0.66086
C         -1.11047        -8.12034        -0.85146
C          0.14412        -7.32673        -0.58605
C          1.39031        -8.06381        -0.57771
C          2.63412        -7.33018        -0.10716
C          3.81196        -8.13806         0.48837
C          5.08459        -7.36329        -0.00750
C          6.36596        -8.11175         0.28217
C          7.54224        -7.40072         0.30895
C         -6.09600        -9.28329         0.63394
C         -4.87590        -9.90082         0.76450
C         -3.60268        -9.75345         0.04763
C         -2.34990        -9.90639         0.58605
C         -1.10792        -9.44254        -0.07328
C          0.08702       -10.07465         0.07623
C          1.33852        -9.58854        -0.64367
C          2.65007       -10.24762        -0.24101
C          3.80411        -9.59144         0.06002
C          5.09810       -10.24431         0.20778
C          6.27091        -9.55569         0.35042
O          4.56878        -2.31745        -1.38215
O         -0.99688        -8.45593        -2.30134
O         -0.17207         2.03930         2.47469
O          5.92040        -5.81369        -1.56922
O         -1.22740        -4.12151        -1.87016
O          9.70245        -1.26246         1.23282
O          2.46045        -2.46526         2.18268
O          1.62273         4.62162         2.11243
O         -1.98766         8.04713         2.18109
O          5.43088         5.03669        -1.87723
O          3.74593        -8.09291         1.86046
O         -1.25164         4.55886         2.56234
O         -4.62170        -1.14549         1.60484
O          1.22434        -5.44063        -1.62212
O         -4.34912         9.14866         1.54054
O         -3.22652         1.44212        -0.71198
O         -4.35428        -3.67044         1.24494
O         -0.26423         6.54068        -0.53792
O         -2.41207        -6.66102         0.66805
O         -9.14816        -0.87415         0.84889
O         -5.94441        -8.01488        -1.48385
O          2.17424         1.11114         2.17311
O          9.64577         1.33141         1.19142
O         -6.35054         1.31827        -1.51472
O          2.99104         8.63046        -1.86359
O         -9.27363         1.00968        -2.24125
O         -5.48103         5.54910        -1.49587
O         -2.14809        -2.43419         1.39372
O         -6.51601        -4.69536         0.91327
O         -3.50608         5.66939         2.43391
O          7.12741        -3.39876        -1.40194
O          5.38424         7.61044        -2.19896
O          7.76926         2.97260        -1.48700
O         -3.56264         3.02376         2.34330
O          4.62893        -5.74199         1.86215
O         -5.18666         3.17164        -1.02390
O         -7.82003         2.77483         1.30616
O          6.30524         1.16291         1.57848
O          7.09981        -0.91012        -1.21986
O          3.00475        -0.20434        -0.86217
O          2.36926         5.52089        -1.32680
O          0.42707        -1.71785        -1.21860
O         -4.30816        -5.02905        -1.99540
O          2.45118         2.92594        -1.05282
O         -6.48485        -1.05983        -1.72891
O          2.46426        -7.48034        -1.49158
O         -3.65809        -9.29840        -1.29004
O         -4.53854         6.65137        -1.19426
O          1.31843         8.50102         2.14962
O         -1.08415         0.39782        -0.86996
O          5.31843         3.40515         1.24227
O          5.09629        -7.06734        -1.43858
O         -7.56457        -3.44058        -2.14218
O          1.16745        -9.93635        -2.04397
H          1.88507        -9.49135        -2.54490
O         -0.13787        11.51903        -0.41201
H         -0.12542        11.20341        -1.33893
O         -6.08055         6.10411         2.02148
H         -5.44209         6.26041         2.75433
O          2.26539        -3.26373        -1.34720
H          1.71289        -3.46586        -2.13351
O          0.51479        -1.09072         2.36692
H          1.05032        -0.66155         3.07008
O         -5.58528         1.21822         2.08230
H         -4.99146         1.73903         2.67096
O         -7.93008        -6.13753        -2.07046
H         -7.85163        -5.23888        -2.49346
O          4.65157        -3.34613         1.98561
H          4.18448        -3.74569         2.75144
O         -1.41745        -7.28496        -3.02925
H         -0.80018        -7.27548        -3.80165
O          9.31947         5.46496         0.84085
H          8.75856         5.16579         1.58573
O          1.93248        -6.21950         1.84122
H          2.58665        -6.86395         2.25660
O          3.39660         7.32697         1.56120
H          2.85321         7.75797         2.28594
O          8.87975        -3.53652         1.83654
H          9.79363        -3.70334         2.14539
O          4.89978         1.30565        -1.79361
H          4.26786         0.61000        -2.09173
H         11.90993        -1.22437        -1.32771
H         11.89025         1.05279        -1.35431
H         10.48818         3.06822        -1.56521
H          9.37300         5.46406        -1.21038
H          8.25540         7.74739        -0.64395
H          6.94606         9.96902        -0.58728
H          4.85228        11.20166        -0.59135
H          2.22252        11.26689        -0.55160
H         -0.01470        10.78764         1.50406
H         -2.53715        11.26541        -0.23267
H         -4.96706        11.09224        -1.00194
H         -7.06302         9.83507        -1.18944
H         -8.40966         7.83548        -0.75623
H         -9.63264         5.68884        -0.84935
H        -10.84268         3.53768        -1.21163
H        -12.18068         1.24659        -0.83035
H        -12.19286        -1.12634        -0.35057
H        -10.96589        -3.38008        -0.50861
H         -9.48227        -5.54848         0.55938
H         -8.05686        -7.34700         1.04212
H         -6.81857        -9.54366         1.42668
H         -4.79663       -10.56296         1.64424
H         -2.24413       -10.35960         1.58402
H          0.14105       -11.01829         0.63915
H          2.69645       -11.33052        -0.44268
H          5.12197       -11.34486         0.18656
H          7.20874       -10.11969         0.46953
H          8.49275        -7.93174         0.47568
H          9.68326        -5.78203         0.43093
H         10.42751        -3.46798        -1.20433
