         600
 CSIRO Nanostructure Databank - Neutral Graphene Oxide Data Set
C         22.99470        27.46112         0.66802
C         22.97713        28.83590         0.73421
C         22.98325        31.79077         0.82099
C         22.99101        33.15981         0.75885
C         23.00915        36.02309         0.11658
C         22.96611        37.37728        -0.05097
C         22.96674        40.31670        -0.55072
C         22.96386        41.67562        -0.81739
C         22.96993        44.56603        -1.37927
C         22.94369        45.91440        -1.56914
C         25.43879        24.65182         0.34789
C         24.24812        25.32687         0.46408
C         25.45118        27.46367         0.61855
C         24.22187        26.74577         0.58735
C         25.42435        28.89644         0.67133
C         24.18673        29.59511         0.71230
C         25.41731        31.73913         0.55269
C         24.19049        31.03404         0.71300
C         25.44092        33.17996         0.54535
C         24.20984        33.90182         0.62868
C         25.42292        36.07365         0.74585
C         24.18543        35.32239         0.52921
C         25.44387        37.55916         0.53751
C         24.12550        38.24229         0.22122
C         25.40707        40.30662        -0.37807
C         24.16736        39.62896        -0.29412
C         25.40715        41.70473        -0.68490
C         24.17158        42.40612        -0.85941
C         25.39314        44.52941        -0.95669
C         24.17037        43.84204        -1.02301
C         25.41622        45.99389        -0.90673
C         24.08599        46.75401        -1.20467
C         25.42124        48.78308        -1.58244
C         24.23070        48.12760        -1.68666
C         28.00576        23.23660         0.00230
C         27.92923        24.64321         0.24334
C         26.69409        25.34005         0.38428
C         27.92632        27.48863         0.72380
C         26.68868        26.75993         0.56020
C         27.90819        28.92106         0.69144
C         26.65115        29.62322         0.58197
C         27.87864        31.70923        -0.06722
C         26.63661        31.01963         0.43299
C         27.89525        33.18724         0.19197
C         26.69184        33.86402         0.41828
C         27.95302        36.05872         0.24011
C         26.74408        35.31690         0.64589
C         27.91700        37.47214         0.03502
C         26.69871        38.22127         0.12498
C         27.88922        40.27271        -0.52590
C         26.66379        39.59170        -0.22627
C         27.88015        41.67511        -0.80360
C         26.64668        42.40361        -0.82606
C         27.84879        44.55362        -1.14038
C         26.63454        43.82623        -0.96486
C         27.89030        45.96943        -1.18799
C         26.67259        46.71689        -1.11339
C         27.91179        48.83801        -1.18551
C         26.65921        48.11552        -1.25159
C         27.95222        50.25147        -1.12995
C         30.35309        23.12815         0.77473
C         29.14252        22.50574         0.22251
C         30.46654        24.60985         0.63960
C         29.18877        25.38300         0.39425
C         30.37483        27.45887         1.19381
C         29.14746        26.79524         0.78778
C         30.35940        29.01572         1.12201
C         29.11618        29.65852         0.69768
C         30.37038        31.73632         0.32276
C         29.15298        31.03239         0.36749
C         30.36969        33.16200         0.11437
C         29.13648        33.88285         0.12632
C         30.37346        36.00675        -0.21638
C         29.14329        35.32293         0.05639
C         30.35927        37.41804        -0.41569
C         29.13444        38.14600        -0.32235
C         30.34657        40.23113        -0.87738
C         29.12011        39.55309        -0.56038
C         30.33113        41.65665        -1.10618
C         29.10699        42.34486        -1.08413
C         30.39379        44.55185        -1.42508
C         29.06731        43.78278        -1.39683
C         30.37107        45.99578        -1.18308
C         29.14277        46.68692        -1.20031
C         30.37465        48.82158        -0.94593
C         29.13906        48.11944        -1.10504
C         30.37943        50.24388        -0.85919
C         29.14669        50.93073        -0.97039
C         32.94964        20.37140         0.30944
C         31.75658        20.97423         0.51013
C         32.93977        23.17824         0.89750
C         31.68126        22.38205         0.91608
C         32.93254        24.56231         1.06094
C         31.63129        25.27559         1.36063
C         32.87715        27.46237         1.12303
C         31.68370        26.76850         1.11055
C         32.88662        28.97558         1.33653
C         31.62864        29.69409         0.89381
C         32.87731        31.75799         0.39639
C         31.62165        31.02974         0.51699
C         32.84819        33.16640         0.09687
C         31.60901        33.86440        -0.01566
C         32.82132        35.96819        -0.55244
C         31.59732        35.27801        -0.26212
C         32.80602        37.37258        -0.81870
C         31.58140        38.10269        -0.73918
C         32.78365        40.20065        -1.49230
C         31.55296        39.50646        -0.96282
C         32.81677        41.67341        -1.18118
C         31.59183        42.38077        -1.19033
C         32.83159        44.50726        -0.99223
C         31.62149        43.79782        -1.16830
C         32.83184        45.94483        -0.90232
C         31.60349        46.67597        -0.96752
C         32.84009        48.78861        -0.65968
C         31.60757        48.09710        -0.85084
C         32.84765        50.21752        -0.54085
C         31.62791        50.94521        -0.64391
C         32.86032        53.01955        -0.28609
C         31.67153        52.35426        -0.51801
C         35.49134        18.94549         0.33515
C         35.43364        20.35995         0.50830
C         34.20026        21.07264         0.50828
C         35.41347        23.19325         0.92578
C         34.18104        22.47321         0.74466
C         35.38430        24.61178         1.09709
C         34.15979        25.31114         1.09311
C         35.36575        27.49004         0.99832
C         34.13746        26.75901         1.12915
C         35.32038        28.91943         0.76215
C         34.13575        29.64956         0.82482
C         35.37076        31.83376         0.61615
C         34.08492        31.05843         0.54574
C         35.32719        33.21582         0.02457
C         34.07414        33.88370        -0.13925
C         35.30023        35.87664        -1.05974
C         34.04085        35.23966        -0.53824
C         35.28984        37.38186        -1.01123
C         34.05924        38.08368        -1.02609
C         35.28521        40.21292        -1.19314
C         34.06714        39.48845        -1.17571
C         35.29291        41.64616        -1.12848
C         34.04374        42.36478        -1.08741
C         35.29239        44.49094        -0.80406
C         34.05769        43.78521        -0.94219
C         35.29127        45.90757        -0.66150
C         34.05743        46.63707        -0.71459
C         35.29775        48.75474        -0.37523
C         34.06227        48.06115        -0.58578
C         35.30945        50.17162        -0.22548
C         34.08084        50.90660        -0.31471
C         35.33218        53.01753         0.07854
C         34.08669        52.32279        -0.17335
C         35.36730        54.42290         0.25735
C         37.91986        18.93736         0.60507
C         36.68151        18.26213         0.39461
C         37.90166        20.33342         0.77462
C         36.65874        21.06612         0.74550
C         37.90716        23.16907         1.34975
C         36.63520        22.46693         0.93382
C         37.90519        24.64536         1.05341
C         36.64387        25.37641         1.43638
C         37.86340        27.50666         0.84231
C         36.61079        26.81805         0.99688
C         37.87276        28.91822         0.54485
C         36.57232        29.57403         0.31493
C         37.84597        31.79353         0.12934
C         36.56552        31.05769         0.11492
C         37.80388        33.18742         0.07463
C         36.55795        33.89818        -0.10927
C         37.75741        36.00445        -0.61658
C         36.56623        35.27474        -0.49645
C         37.74564        37.34418        -1.07358
C         36.51614        38.07111        -1.16576
C         37.74158        40.24281        -1.29048
C         36.52874        39.51003        -1.23199
C         37.76029        41.64568        -1.11561
C         36.51690        42.35104        -1.01856
C         37.75593        44.46682        -0.66767
C         36.52597        43.77386        -0.83315
C         37.75162        45.87432        -0.43503
C         36.52274        46.60002        -0.46360
C         37.74519        48.70727        -0.05598
C         36.52029        48.02192        -0.30659
C         37.75719        50.13013         0.10630
C         36.54267        50.85905         0.00812
C         37.78152        52.98250         0.38974
C         36.54930        52.28951         0.15851
C         37.78466        54.39684         0.56390
C         36.55167        55.08951         0.49868
C         40.42613        16.10025         0.61472
C         39.22379        16.79041         0.57913
C         40.40954        18.91927         0.68393
C         39.18175        18.20366         0.61785
C         40.41629        20.35154         0.74446
C         39.14883        21.07336         0.82331
C         40.39238        23.18409         0.51407
C         39.13509        22.44703         0.88426
C         40.36794        24.67158         0.75131
C         39.09785        25.34931         0.87690
C         40.36710        27.50138         0.90502
C         39.08252        26.79024         0.87087
C         40.35747        29.01198         0.69098
C         39.05732        29.65682         0.42242
C         40.32249        31.76738         0.03449
C         39.07171        31.06932         0.17495
C         40.33612        33.18224        -0.04530
C         39.07335        33.92397         0.12452
C         40.31228        36.02953        -0.65571
C         39.04973        35.39724        -0.22932
C         40.29326        37.36209        -1.09954
C         39.00808        38.01137        -1.40382
C         40.28230        40.25160        -1.41402
C         39.00355        39.54041        -1.55264
C         40.26074        41.67596        -1.19750
C         39.00732        42.36110        -1.03227
C         40.23305        44.45352        -0.54817
C         39.00241        43.75282        -0.75186
C         40.23085        45.83890        -0.19818
C         38.97732        46.56507        -0.15895
C         40.16014        48.65078         0.51798
C         38.94728        47.95453         0.07207
C         40.20933        50.11815         0.47716
C         38.99944        50.83040         0.33533
C         40.24515        52.94034         0.67797
C         39.00993        52.25306         0.46180
C         40.24021        54.36220         0.79266
C         39.03694        55.09173         0.77021
C         40.24845        57.16990         1.30392
C         39.07146        56.51030         0.98930
C         42.90521        16.10190         0.76481
C         41.65617        16.79133         0.70140
C         42.88579        18.92747         0.83842
C         41.65059        18.21628         0.73648
C         42.87125        20.35388         0.88969
C         41.62529        21.04011         0.86413
C         42.87376        23.23634         0.77879
C         41.60122        22.52283         1.15553
C         42.84764        24.62684         0.60282
C         41.58566        25.35468         0.65481
C         42.81207        27.48796         0.35631
C         41.62424        26.78697         0.63400
C         42.80588        28.92011         0.14881
C         41.59699        29.65115         0.22220
C         42.76741        31.73569        -0.36516
C         41.55938        31.04227        -0.05679
C         42.73418        33.14068        -0.48458
C         41.54022        33.88232        -0.29046
C         42.74292        36.02946        -0.76776
C         41.53707        35.32583        -0.53578
C         42.74037        37.40504        -1.07208
C         41.49925        38.09027        -1.25427
C         42.75188        40.22735        -1.56258
C         41.47279        39.51812        -1.44000
C         42.74922        41.74967        -1.37939
C         41.46895        42.39778        -1.07099
C         42.72116        44.45617        -0.50357
C         41.47546        43.76599        -0.69104
C         42.70838        45.83328        -0.16811
C         41.46385        46.49633         0.01307
C         42.72581        48.65270         0.44101
C         41.47477        47.88086         0.49806
C         42.68983        50.05480         0.67541
C         41.45281        50.78875         0.67194
C         42.71410        52.89645         1.08507
C         41.47000        52.20865         0.78720
C         42.74248        54.31442         1.18140
C         41.54720        55.10733         0.73198
C         42.68675        57.12096         1.69600
C         41.48467        56.49290         1.31380
C         44.08914        16.78987         0.86777
C         45.34994        18.95312         1.01318
C         44.12244        18.21926         0.91119
C         45.33975        20.38316         0.98001
C         44.10311        21.08317         0.92168
C         45.32079        23.23094         0.70291
C         44.09270        22.51789         0.80486
C         45.30569        24.64960         0.50156
C         44.07348        25.34634         0.43503
C         45.25717        27.44657        -0.08144
C         44.05829        26.76811         0.22459
C         45.24935        28.87092        -0.34606
C         44.02011        29.59352        -0.21880
C         45.22808        31.65258        -0.78205
C         44.01005        30.99674        -0.47848
C         45.22686        33.09321        -1.07270
C         43.94887        33.85993        -0.90465
C         45.26686        35.99508        -1.04275
C         44.04128        35.31135        -0.50154
C         45.24115        37.39841        -1.16555
C         43.99674        38.12376        -1.16158
C         45.23332        40.25493        -1.24309
C         44.01329        39.51491        -1.32143
C         45.22691        41.67005        -1.02363
C         44.00625        42.39591        -0.97174
C         45.20288        44.44505        -0.31912
C         43.97324        43.75338        -0.59138
C         45.17937        45.83190        -0.06273
C         43.95548        46.55239         0.00677
C         45.22858        48.74706         0.26049
C         43.93178        47.96205         0.23911
C         45.11354        50.03946         1.01805
C         43.92175        50.74088         0.99828
C         45.13936        52.83606         1.56890
C         43.90284        52.15947         1.29146
C         45.15220        54.25791         1.68913
C         43.92488        54.99993         1.52794
C         43.87877        56.41732         1.74432
C         47.79070        18.98558         1.14384
C         46.60771        18.28987         1.13126
C         47.83145        20.40955         1.04431
C         46.57703        21.12198         1.00076
C         47.78154        23.31708         0.96069
C         46.54600        22.52971         0.86963
C         47.78308        24.70848         0.47669
C         46.53816        25.36786         0.31756
C         47.73090        27.39360        -0.38490
C         46.50771        26.74218        -0.05046
C         47.67335        28.74302        -1.06731
C         46.44412        29.53923        -0.69278
C         47.70653        31.66829        -1.05497
C         46.45877        30.94833        -0.84012
C         47.71425        33.10199        -1.14637
C         46.50157        33.83065        -1.07426
C         47.71348        35.93073        -1.41573
C         46.48623        35.24829        -1.16312
C         47.67007        37.37451        -1.65522
C         46.44728        38.12879        -1.37797
C         47.72028        40.24386        -1.12439
C         46.46998        39.53518        -1.29402
C         47.69305        41.61943        -0.73472
C         46.45806        42.34389        -0.70013
C         47.67115        44.36342         0.06959
C         46.44765        43.71744        -0.34240
C         47.67271        45.72821         0.43325
C         46.49277        46.57258         0.01776
C         47.63882        48.56630         1.07473
C         46.33260        47.84592         0.85089
C         47.62173        49.91698         1.41608
C         46.30877        50.59614         1.73552
C         47.57714        52.77287         1.88990
C         46.35776        52.10490         1.69813
C         47.56958        54.19096         1.98488
C         46.39390        54.90626         1.90903
C         50.30355        20.43008         0.69365
C         49.07077        21.09352         0.90678
C         50.31484        23.28210         0.53216
C         49.10885        22.56095         0.97389
C         50.26419        24.65734         0.22404
C         48.99489        25.36563         0.17270
C         50.16748        27.33122        -0.92588
C         48.94113        26.70979        -0.30439
C         50.16575        28.84241        -0.90474
C         48.96913        29.52401        -0.97481
C         50.15631        31.67785        -1.31952
C         48.93984        30.97010        -1.12399
C         50.18008        33.08843        -1.36681
C         48.95032        33.81229        -1.29367
C         50.19873        35.95894        -1.46211
C         48.94241        35.23647        -1.43068
C         50.22531        37.36775        -1.39652
C         49.00154        38.14830        -1.60761
C         50.17097        40.18977        -0.83699
C         48.95110        39.55020        -1.18720
C         50.14027        41.55175        -0.42241
C         48.90857        42.26738        -0.35324
C         50.10882        44.24529         0.53798
C         48.89713        43.62196         0.09500
C         50.09112        45.62842         1.00282
C         48.84572        46.38136         0.90020
C         49.99732        48.43166         1.76976
C         48.82101        47.77614         1.18725
C         50.05933        49.89871         1.82346
C         48.84350        50.62268         1.72150
C         50.05336        52.64648         2.29834
C         48.83374        52.02355         1.97335
C         51.48866        21.12727         0.54524
C         52.76488        23.26692         0.30176
C         51.53015        22.54912         0.45491
C         52.73620        24.67067         0.05690
C         51.48405        25.35173        -0.07931
C         52.67007        27.42790        -0.64767
C         51.46922        26.71610        -0.47238
C         52.62953        28.82895        -1.03198
C         51.43377        29.50941        -1.10608
C         52.68928        31.67982        -1.44837
C         51.40726        30.91033        -1.66709
C         52.67316        33.10919        -1.47107
C         51.43298        33.81124        -1.45293
C         52.67201        35.94993        -1.38402
C         51.43367        35.23332        -1.43083
C         52.67092        37.36325        -1.21418
C         51.43763        38.07414        -1.17471
C         52.63886        40.18313        -0.70024
C         51.41499        39.48300        -0.91528
C         52.59621        41.54199        -0.31623
C         51.35998        42.21067        -0.09417
C         52.57302        44.10267         0.97087
C         51.32088        43.53219         0.44290
C         52.55261        45.54198         1.46809
C         51.27315        46.25948         1.38261
C         52.56894        48.39704         1.90501
C         51.29491        47.64726         1.86133
C         52.54583        49.79053         2.11441
C         51.28299        50.54181         2.12123
C         51.24644        51.93447         2.35331
C         55.19837        23.32511         0.35745
C         54.01998        22.61597         0.42597
C         55.20637        24.72245         0.10859
C         53.96053        25.39369        -0.09411
C         55.16060        27.49627        -0.60347
C         53.93025        26.77692        -0.44406
C         55.16235        28.84959        -1.02688
C         53.89484        29.48455        -1.54504
C         55.13856        31.70114        -1.50058
C         53.89496        30.99484        -1.41600
C         55.15386        33.12939        -1.63528
C         53.91103        33.82663        -1.53763
C         55.15467        35.95693        -1.50166
C         53.91236        35.24783        -1.48618
C         55.14060        37.36642        -1.20615
C         53.90734        38.06727        -1.06856
C         55.12801        40.14169        -0.61188
C         53.89972        39.47378        -0.81587
C         55.16408        41.59843        -0.41711
C         53.84060        42.32492        -0.23799
C         55.05480        44.23263         0.80518
C         53.86120        43.57570         0.51906
C         55.03614        45.60139         1.29993
C         53.82435        46.28507         1.49662
C         55.03815        48.39737         1.90352
C         53.80592        47.69699         1.75750
C         54.98958        49.79347         2.14667
C         53.78882        50.46794         2.22930
C         57.69110        24.85202         0.34253
C         56.43521        25.46444         0.05151
C         57.62979        27.55805        -0.44284
C         56.40375        26.83956        -0.31202
C         57.61975        28.91988        -0.86103
C         56.36556        29.57473        -1.11288
C         57.58598        31.65694        -1.69151
C         56.36119        30.97967        -1.42608
C         57.56393        33.02989        -2.10744
C         56.37156        33.84154        -1.90218
C         57.57792        36.10820        -1.89524
C         56.37360        35.28045        -1.81814
C         57.60118        37.41745        -1.31620
C         56.36390        38.06477        -1.00439
C         57.59483        40.13619        -0.37995
C         56.35600        39.44365        -0.64894
C         57.59227        41.49512         0.08383
C         56.36927        42.22953         0.13404
C         57.54927        44.21092         0.96027
C         56.32478        43.55577         0.59728
C         57.52177        45.58497         1.36686
C         56.28215        46.29471         1.48833
C         57.53383        48.32081         2.07178
C         56.28683        47.67478         1.82190
C         58.87016        25.55008         0.24167
C         60.08088        27.63185        -0.33760
C         58.87188        26.91090        -0.17613
C         60.06598        28.93246        -0.80205
C         58.84531        29.59497        -1.09018
C         59.98701        31.51099        -2.18020
C         58.82296        30.93557        -1.64308
C         59.92190        32.75260        -2.80593
C         58.73141        33.48155        -2.76435
C         59.94674        36.45516        -2.51166
C         58.74692        35.74026        -2.59310
C         60.00302        37.61782        -1.75094
C         58.82419        38.14471        -1.18938
C         60.02485        40.11937        -0.20574
C         58.82042        39.46291        -0.57475
C         60.01891        41.40191         0.30308
C         58.81137        42.13956         0.43369
C         59.98995        44.21699         1.18350
C         58.78725        43.51876         0.86469
C         59.97113        45.54059         1.55275
C         58.74304        46.25530         1.64287
C         58.72126        47.63233         2.00155
O         30.25099        28.29870         2.39987
O         44.38265        33.50778        -2.24417
O         48.34498        37.83289        -2.87524
O         58.70509        34.67327        -3.49996
O         36.39800        30.19454        -1.03865
O         54.56503        42.36958        -1.52043
O         29.71844        44.13725        -2.66591
O         30.20949        25.09335        -0.69154
O         52.51779        44.40746         2.40736
O         24.57677        46.55080         0.15222
O         39.10649        34.96395         1.17523
O         42.80954        41.13745        -2.71021
O         48.52475        23.11439         2.21058
O         26.17621        35.69917         1.94704
O         50.44721        47.83125         3.05006
O         40.47112        28.44403         2.04027
O         24.66790        38.21388         1.59356
O         38.96653        38.65661        -2.72223
O         30.79418        22.61123         2.06674
O         40.73209        48.07782         1.75149
O         27.83450        31.56744        -1.54441
H         27.80188        30.60693        -1.74179
O         47.52901        28.43603        -2.49827
H         48.30913        27.87662        -2.74003
O         44.20875        35.27179         0.96085
H         44.15882        36.19235         1.29460
O         45.87142        47.42665         2.15779
H         45.83822        48.22723         2.73503
O         32.91069        29.13024         2.79915
H         32.03257        28.81110         3.12111
O         35.32342        35.53388        -2.50693
H         36.05039        36.05088        -2.91664
O         37.93135        23.04832         2.82223
H         37.33868        23.76395         3.17213
O         36.64605        25.42746         2.94339
H         37.34834        26.06427         3.20214
O         45.53424        49.18097        -1.09489
H         45.92355        48.41294        -1.58131
O         41.46379        22.66530         2.59649
H         42.21967        22.21004         3.02223
O         46.84284        46.94879        -1.36638
H         46.87943        46.12220        -1.89378
O         50.04972        26.99092        -2.36817
H         50.82843        27.38418        -2.81996
O         53.87697        29.23198        -2.99610
H         53.06484        29.67900        -3.34226
O         40.55683        23.01434        -0.93210
H         39.79439        23.44051        -1.37649
O         32.66948        40.12170        -2.96945
H         31.87230        40.63403        -3.22549
O         41.77351        55.32907        -0.73061
H         41.03272        55.89042        -1.04656
O         46.06766        50.22237         3.16293
H         46.80747        50.59631         3.68969
O         51.35834        30.69909        -3.14112
H         51.19390        31.57382        -3.55592
O         31.35011        25.12776         2.78193
H         32.13234        25.44251         3.28144
O         35.64486        32.00577         2.05416
H         34.86522        32.43974         2.46085
H         22.05012        26.89807         0.66433
H         22.00821        29.35070         0.78147
H         22.02446        31.27398         0.96100
H         22.04181        33.70203         0.86545
H         22.11018        35.44032        -0.12897
H         22.05453        37.82847        -0.46627
H         22.00642        39.78879        -0.48051
H         22.00084        42.18486        -0.95062
H         22.06679        43.99071        -1.62604
H         22.05654        46.39386        -2.00912
H         25.42358        23.55912         0.23981
H         23.29693        24.77548         0.44568
H         25.46781        49.83482        -1.89859
H         23.35711        48.62852        -2.12954
H         27.10106        22.70154        -0.31941
H         27.02006        50.82962        -1.18392
H         29.11167        21.41503         0.09435
H         29.11846        52.02691        -0.91613
H         32.96296        19.31102         0.02679
H         30.82581        20.39747         0.42486
H         32.83366        54.11275        -0.19143
H         30.75002        52.94551        -0.59659
H         34.57176        18.37253         0.16081
H         34.44077        55.00939         0.21059
H         36.66739        17.17350         0.25290
H         36.51935        56.17847         0.63204
H         40.42769        15.00097         0.58841
H         38.29161        16.21170         0.53447
H         40.21847        58.23498         1.57871
H         38.13632        57.08443         0.99037
H         42.90749        15.00262         0.73246
H         42.66834        58.18376         1.98076
H         45.02687        16.22011         0.91240
H         44.79029        56.95324         2.03907
H         48.72924        18.42299         1.23563
H         46.64327        17.19529         1.20900
H         48.51145        54.73884         2.11826
H         46.44001        56.00000         1.99090
H         50.33789        19.33263         0.66470
H         50.08280        53.72179         2.51830
H         52.41622        20.55183         0.42766
H         52.16381        52.48084         2.60789
H         56.14368        22.78313         0.48849
H         54.06351        21.53573         0.61645
H         55.91927        50.36758         2.25312
H         53.81102        51.55368         2.38931
H         57.72728        23.80101         0.65745
H         57.55448        49.38435         2.34356
H         59.82707        25.05824         0.46825
H         61.03597        27.13675        -0.11069
H         61.02043        29.45954        -0.93426
H         60.93370        30.95598        -2.18828
H         60.79134        33.16637        -3.33224
H         60.82480        36.10216        -3.06734
H         60.94876        38.17111        -1.68454
H         60.98508        39.59500        -0.30419
H         60.97686        41.85700         0.58759
H         60.95567        43.69783         1.12419
H         60.91040        46.06457         1.78139
H         59.67119        48.14396         2.21332
