         334
 CSIRO Nanostructure Databank - Neutral Graphene Oxide Data Set
C         30.40319        57.07352        -0.22284
C         30.33801        58.47460         0.35782
C         29.09464        59.25983         0.02771
C         30.29666        61.39543         0.15310
C         29.13113        60.65202        -0.02223
C         32.86590        52.91152        -0.11348
C         32.90304        54.28161        -0.27018
C         31.74213        55.04297        -0.88010
C         32.84855        57.19353        -0.14442
C         31.60585        56.46353        -0.37727
C         32.85327        58.55048         0.02926
C         31.55640        59.29787        -0.11732
C         32.84400        61.44472         0.10159
C         31.58748        60.70481         0.49138
C         35.25268        48.62462         0.33435
C         35.21907        49.99873         0.45649
C         34.02848        50.76830         0.26447
C         35.30387        52.88490         0.40158
C         34.04615        52.15939         0.21997
C         35.29679        54.33585         0.28615
C         34.12401        55.00054        -0.03318
C         35.26093        57.17117         0.46360
C         34.16435        56.48016        -0.33973
C         35.28674        58.65871         0.22640
C         34.09444        59.31517         0.10815
C         35.30639        61.47713        -0.10066
C         34.04826        60.78345         0.03580
C         37.74068        44.32615         0.34832
C         37.71878        45.73881         0.49304
C         36.50956        46.46427         0.42084
C         37.72628        48.57411         0.39451
C         36.49390        47.87421         0.41313
C         37.68886        50.05929         0.13229
C         36.50011        50.71065         0.84473
C         37.77540        52.92825         0.88319
C         36.47948        52.20467         0.61755
C         37.77361        54.36401         0.43592
C         36.56567        55.05987         0.34148
C         37.77276        57.19102         0.12047
C         36.57859        56.48195         0.24640
C         37.80361        58.64800         0.09895
C         36.56239        59.39829         0.52955
C         37.76931        61.49812        -0.11622
C         36.52997        60.83183         0.04465
C         40.25387        40.10638         0.02402
C         40.23215        41.48243         0.27503
C         39.00962        42.22776         0.17686
C         40.15814        44.27411         1.03927
C         38.93946        43.59582         0.44201
C         40.18965        45.77080         0.81081
C         38.97096        46.45738         0.61686
C         40.20124        48.59076         0.47410
C         38.95482        47.88279         0.47972
C         40.21125        50.04000         0.35030
C         38.99925        50.76824         0.37861
C         40.22324        52.87972         0.26858
C         39.00973        52.17065         0.44144
C         40.23683        54.33199         0.18604
C         39.00519        55.05325         0.25322
C         40.22362        57.15293        -0.20591
C         39.00339        56.46471         0.04590
C         40.19429        58.59965        -0.64821
C         38.95774        59.32932        -0.17726
C         40.23169        61.45473        -0.17622
C         38.99138        60.78900        -0.14742
C         42.73245        36.11887        -1.25511
C         42.71974        37.37076        -0.60616
C         41.49826        38.05340        -0.42922
C         42.70951        40.02389         0.40589
C         41.47405        39.38083         0.01860
C         42.67992        41.45351         0.65422
C         41.47110        42.15140         0.55758
C         42.67180        44.28750         1.22170
C         41.46535        43.65991         0.51688
C         42.69853        45.77865         0.99559
C         41.42234        46.47251         0.86229
C         42.64658        48.65160         0.84009
C         41.39693        47.88788         0.68441
C         42.70027        50.03539         0.33394
C         41.44053        50.74504         0.22426
C         42.65529        52.86062        -0.25953
C         41.41659        52.14974         0.07503
C         42.69269        54.33428        -0.15816
C         41.43865        55.03638        -0.05241
C         42.67441        57.16309        -0.69345
C         41.42238        56.45363        -0.23132
C         42.68136        58.63164        -0.35058
C         41.48417        59.32427        -0.32269
C         42.70536        61.43959        -0.10302
C         41.47365        60.75845        -0.18600
C         45.13570        33.61200        -2.56169
C         43.94884        34.23838        -2.27091
C         45.17469        36.03905        -1.07357
C         43.93691        35.46462        -1.53444
C         45.16775        37.26445        -0.35882
C         43.95478        37.96869        -0.14878
C         45.15080        39.91732         0.94049
C         43.90729        39.28697         0.42316
C         45.15775        41.42640         1.25462
C         43.92255        42.17254         0.83181
C         45.19404        44.27653         0.89461
C         43.95830        43.56523         0.87990
C         45.19375        45.70985         0.94223
C         43.91772        46.42711         0.98151
C         45.19547        48.61631         0.70395
C         43.94697        47.90573         1.00456
C         45.19149        49.96783         0.35279
C         43.91872        50.65230         0.13162
C         45.20552        52.81258        -0.04046
C         43.93273        52.06924        -0.28522
C         45.17991        54.30046        -0.03887
C         43.90111        55.02663        -0.19845
C         45.15181        57.14707        -0.21974
C         43.94441        56.45039        -0.30534
C         45.16178        58.59397        -0.22677
C         43.93606        59.31094        -0.22521
C         45.18036        61.43347        -0.10453
C         43.93815        60.74729        -0.12905
C         46.36094        34.17058        -2.11562
C         47.72587        35.85820        -0.90170
C         46.39238        35.34386        -1.38547
C         47.67708        37.30692        -0.49324
C         46.46308        37.70463         0.30916
C         47.68275        39.99630         0.58317
C         46.46423        39.18006         0.74802
C         47.73028        41.38897         1.17022
C         46.44615        42.14723         0.93119
C         47.67509        44.29507         0.82492
C         46.44092        43.54588         0.85275
C         47.65950        45.71081         0.83735
C         46.41426        46.41461         0.90694
C         47.70262        48.59305         0.64568
C         46.45155        47.91457         1.12857
C         47.67781        49.99100         0.34243
C         46.43572        50.66095         0.16341
C         47.71113        52.82278        -0.17370
C         46.44963        52.04770        -0.42775
C         47.72064        54.29801        -0.51312
C         46.43234        55.04343        -0.21196
C         47.67048        57.16773        -0.14532
C         46.41451        56.42095        -0.18096
C         47.63838        58.59962        -0.14934
C         46.40139        59.29897        -0.18070
C         47.64748        61.44064        -0.16593
C         46.40225        60.74296        -0.15097
C         48.75773        38.10326        -0.60989
C         50.04399        40.13160        -0.07111
C         48.81275        39.44639        -0.04484
C         50.12683        41.49793         0.31337
C         48.93412        42.17164         0.70891
C         50.14353        44.30279         0.60847
C         48.92044        43.58138         0.73361
C         50.13624        45.72644         0.66834
C         48.90479        46.43579         0.76953
C         50.16257        48.55178         0.53310
C         48.91748        47.86652         0.65034
C         50.20561        49.98750         0.07634
C         48.89911        50.71407         0.18180
C         50.20615        52.83943        -0.10661
C         48.89868        52.12449        -0.02595
C         50.21356        54.33473        -0.09686
C         48.88051        54.99125         0.20981
C         50.11451        57.19485         0.13679
C         48.88031        56.48746         0.00285
C         50.08799        58.61911        -0.02413
C         48.88032        59.31462        -0.12886
C         50.11278        61.48526        -0.18245
C         48.87310        60.77174        -0.17789
C         51.34101        42.21505         0.20075
C         52.60826        44.33479         0.37533
C         51.38502        43.60709         0.41534
C         52.63555        45.73188         0.51288
C         51.37566        46.43271         0.63535
C         52.63329        48.56368         0.87773
C         51.36198        47.84639         0.64033
C         52.63119        50.06113         0.94056
C         51.39895        50.79742         0.55611
C         52.73103        52.92671         0.25756
C         51.43292        52.13267         0.31654
C         52.59996        54.39294         0.61740
C         51.42802        55.07344         0.35193
C         52.54073        57.26959         0.75393
C         51.32517        56.50232         0.42564
C         52.54868        58.74888         0.45821
C         51.38313        59.32619        -0.30970
C         52.59167        61.49475        -0.25130
C         51.34596        60.83193        -0.19638
C         53.86037        46.46751         0.45392
C         55.08788        48.62978         0.55090
C         53.90944        47.86420         0.62204
C         55.09189        50.05679         0.65137
C         53.91604        50.76683         0.79574
C         55.13867        52.97061         0.94595
C         53.83285        52.24243         1.08197
C         55.11953        54.38655         1.01011
C         53.79340        55.10616         1.23418
C         55.01291        57.27513         0.72968
C         53.83730        56.57374         0.85375
C         55.00997        58.67652         0.32364
C         53.84327        59.39676         0.19170
C         55.05734        61.46101        -0.42309
C         53.83087        60.80083        -0.20108
C         56.40995        50.78385         0.46691
C         57.56033        52.93457         0.99703
C         56.37399        52.26483         0.81304
C         57.63086        54.39914         1.30236
C         56.31222        55.10152         1.05682
C         57.60899        57.22869         0.59466
C         56.30861        56.57098         0.96818
C         57.53790        58.56018        -0.08494
C         56.24937        59.30014        -0.18679
C         57.50602        61.36909        -0.76473
C         56.28736        60.76219        -0.43258
C         58.71403        55.00407         0.44916
C         59.87022        56.98506        -0.43218
C         58.76650        56.37512         0.18840
C         60.06163        58.43974        -0.44484
C         58.81009        59.31691        -0.20687
C         59.94452        61.23496        -1.23744
C         58.75627        60.68023        -0.76123
C         61.14390        59.08724        -1.17901
C         61.10022        60.43344        -1.45332
O         45.24297        53.47433         1.24791
O         50.37022        53.62622        -1.36343
O         57.19724        57.21716         1.99058
O         59.74332        59.08937         0.85916
O         52.55786        49.26690         2.18441
O         52.30715        58.30492         1.80882
O         43.26563        52.37476        -1.54302
O         56.80048        58.51571        -1.34441
O         43.24530        48.48698         2.18353
O         45.80192        39.23936         2.07071
O         37.90037        52.98358         2.35364
H         37.74848        52.06056         2.67553
O         53.13754        52.88586        -1.14017
H         52.38048        53.24857        -1.66041
O         45.09879        41.53368         2.72231
H         45.98009        41.22153         3.05340
O         53.56289        55.08803         2.67588
H         54.26271        55.62632         3.10192
O         34.48714        56.59651        -1.75335
H         33.73940        56.18017        -2.24682
O         37.42691        50.22630        -1.29730
H         38.15562        49.79347        -1.78953
O         42.57980        44.12249         2.65744
H         42.60775        43.16369         2.86207
O         53.39164        52.35294         2.46164
H         53.96042        51.78510         3.02138
O         31.39625        59.51650        -1.54542
H         31.47758        58.64715        -1.99210
O         46.48709        48.07694         2.60521
H         45.56377        47.99958         2.93392
O         57.45674        50.12382         1.18638
H         57.26675        50.19478         2.14409
O         34.93653        56.99893         1.87491
H         35.58845        57.53612         2.38008
O         51.69165        59.02669        -1.71369
H         50.98717        59.42512        -2.26706
O         47.90311        54.41154        -1.95094
H         47.31808        53.73649        -2.36668
O         31.64610        60.58797         1.96442
H         31.55949        61.49121         2.33574
O         57.96113        54.58111         2.72681
H         57.94277        55.55473         2.88726
O         42.61457        57.11820        -2.17585
H         42.65045        56.17316        -2.43990
O         36.70220        50.49994         2.28026
H         35.86248        50.72331         2.73489
O         50.45641        49.85533        -1.38709
H         50.48109        50.76388        -1.76054
O         48.75118        35.61383        -1.86814
H         48.48679        36.03510        -2.71111
O         36.62532        59.45351         2.00701
H         35.90831        60.05548         2.30173
O         48.69471        54.76974         1.63337
H         47.80269        55.09297         1.88361
O         40.06338        44.02658         2.46493
H         39.27253        44.49906         2.79784
O         30.33270        58.28585         1.79996
H         30.66440        59.12308         2.20887
O         41.58596        44.02478        -0.88636
H         40.85003        43.59362        -1.37061
O         32.02097        55.13747        -2.30299
H         32.17712        54.23031        -2.63967
O         46.55291        36.89095         1.51676
H         46.04610        37.37791         2.20994
O         46.36540        51.91192        -1.90407
H         47.03508        51.24739        -2.17455
O         47.85780        41.23615         2.65684
H         48.52373        40.53413         2.82123
O         40.12649        58.56662        -2.11273
H         40.95462        58.12051        -2.42106
H         29.46759        56.51394        -0.38151
H         28.13004        58.73724        -0.05916
H         30.25981        62.49464         0.11109
H         28.19244        61.19357        -0.22016
H         31.92913        52.36212        -0.29845
H         30.78026        54.47707        -0.73562
H         32.82156        62.54582         0.05894
H         34.32011        48.07068         0.14388
H         33.08629        50.23584         0.06056
H         35.28868        62.55381        -0.33222
H         36.80744        43.80268         0.08927
H         35.55943        45.91299         0.35658
H         37.77836        62.58867        -0.26937
H         39.32306        39.58483        -0.24350
H         38.09856        41.69165        -0.13139
H         40.24582        62.55454        -0.12956
H         41.78133        35.67863        -1.58930
H         40.56083        37.56802        -0.73813
H         42.70933        62.53789        -0.03345
H         45.14607        32.67419        -3.13437
H         42.99197        33.81449        -2.60808
H         45.18365        62.53303        -0.06162
H         47.30724        33.66251        -2.35023
H         48.00677        35.27243         0.01776
H         47.63479        62.54110        -0.16742
H         49.65454        37.72306        -1.12300
H         50.93417        39.62659        -0.47179
H         50.08453        62.58545        -0.15053
H         52.26121        41.67596        -0.06906
H         53.54993        43.78448         0.23282
H         52.60814        62.58941        -0.37017
H         54.79591        45.91372         0.28226
H         56.05121        48.12143         0.39721
H         55.05473        62.54034        -0.63745
H         56.68582        50.70198        -0.62224
H         58.50372        52.36878         0.95544
H         57.50342        62.43149        -1.05329
H         59.52794        54.35955         0.08468
H         60.68314        56.34977        -0.81631
H         59.95134        62.27728        -1.58707
H         61.97950        58.47297        -1.54469
H         61.95810        60.89868        -1.96035
