         410
 CSIRO Nanostructure Databank - Neutral Graphene Oxide Data Set
C         27.94029        27.47261         0.51311
C         27.93118        28.88015         0.44498
C         26.68227        29.62226         0.47428
C         27.85712        31.78018         0.24462
C         26.62839        30.96771         0.33554
C         27.84544        33.17829        -0.26371
C         26.63585        33.85752        -0.45639
C         27.79446        35.96912        -0.80367
C         26.60234        35.22272        -0.72801
C         27.76535        37.42361        -0.95303
C         26.61981        38.17805        -0.73010
C         27.81188        40.34194        -0.75504
C         26.63983        39.58627        -0.64564
C         27.87343        41.73950        -0.45237
C         26.66157        42.50292        -0.21928
C         27.97222        44.53682         0.35542
C         26.68051        43.81911         0.08631
C         27.90581        46.00232         0.01531
C         30.36631        27.44333         0.27146
C         29.13862        26.77392         0.42104
C         30.37327        28.84928         0.15333
C         29.15256        29.55768         0.25205
C         30.32536        31.67367        -0.52775
C         29.16291        31.03590         0.20161
C         30.35860        33.18508        -0.39521
C         29.07658        33.88114        -0.42955
C         30.28336        36.04869        -0.69222
C         29.02731        35.27521        -0.68775
C         30.28775        37.39896        -1.33591
C         28.98469        38.13547        -1.35403
C         30.34616        40.33923        -1.09357
C         29.03501        39.66869        -1.23076
C         30.34581        41.72840        -0.81037
C         29.12001        42.42073        -0.48950
C         30.32647        44.54925        -0.51685
C         29.15954        43.83318        -0.26671
C         30.27194        46.01962        -0.66321
C         28.97623        46.68640        -0.41003
C         32.87562        24.78856         1.25118
C         31.69970        25.38375         0.94950
C         32.90006        27.47907         0.33948
C         31.65005        26.65249         0.13263
C         32.88789        28.87263         0.17123
C         31.62844        29.60507         0.04305
C         32.83747        31.77789        -0.06589
C         31.61044        30.97059        -0.14963
C         32.84475        33.18665        -0.49780
C         31.56636        33.86191        -0.49811
C         32.85904        36.02553        -0.90469
C         31.59810        35.33661        -0.53705
C         32.84604        37.42604        -1.06937
C         31.58255        38.15393        -1.36437
C         32.80874        40.31475        -1.16525
C         31.57183        39.63548        -1.24941
C         32.81679        41.74882        -1.01265
C         31.57884        42.45159        -0.82980
C         32.80725        44.59007        -0.63000
C         31.57224        43.86830        -0.71588
C         32.82738        45.99603        -0.40680
C         31.59474        46.78197        -0.61625
C         32.81794        48.82048         0.00703
C         31.64358        48.21528        -0.29153
C         35.45612        23.37616         1.53227
C         35.39410        24.76760         1.19566
C         34.15116        25.42121         0.97017
C         35.36587        27.49190         0.42628
C         34.13099        26.79123         0.56624
C         35.33544        28.86415         0.07191
C         34.13037        29.56308         0.02907
C         35.33856        31.75754        -0.52949
C         34.15904        31.03897        -0.03982
C         35.32096        33.13263        -0.73545
C         34.05823        33.86079        -0.69790
C         35.29014        35.98347        -1.22253
C         34.07101        35.29459        -0.94830
C         35.26682        37.39508        -1.30977
C         34.06137        38.12931        -1.19085
C         35.27928        40.27672        -1.20567
C         34.06308        39.58754        -1.22050
C         35.29221        41.75075        -1.23602
C         34.02810        42.47314        -0.99830
C         35.26220        44.56013        -0.44955
C         34.04364        43.87041        -0.72476
C         35.22871        45.87590         0.01861
C         34.02396        46.64959        -0.04322
C         35.29113        48.77810         0.22579
C         34.06846        48.09504         0.09444
C         35.43369        50.19518         0.09230
C         37.89807        23.43811         1.68754
C         36.64889        22.73888         1.74470
C         37.87802        24.82384         1.37968
C         36.63026        25.48699         1.08853
C         37.82930        27.62579         0.66585
C         36.61548        26.85188         0.69226
C         37.86198        28.93352         0.15515
C         36.59742        29.52191        -0.31487
C         37.84511        31.71858        -0.70694
C         36.57471        30.97979        -0.70682
C         37.77577        33.10789        -1.07605
C         36.56289        33.81360        -1.10305
C         37.73711        35.93327        -1.59787
C         36.54984        35.24833        -1.35650
C         37.78154        37.40042        -1.75696
C         36.49495        38.15401        -1.61023
C         37.76318        40.22158        -1.04650
C         36.53888        39.59271        -1.27210
C         37.81633        41.64373        -0.74117
C         36.60906        42.45593        -1.05323
C         37.65968        44.34706         0.27979
C         36.61893        43.94300        -0.74127
C         37.70853        45.78918         0.53088
C         36.45360        46.51267         0.54322
C         37.82985        48.69422         0.58309
C         36.50500        48.03848         0.61207
C         37.87331        50.10036         0.48971
C         36.64459        50.81864         0.25268
C         40.39919        20.70131         2.24993
C         39.20527        21.36401         2.14738
C         40.36856        23.51841         1.88099
C         39.15172        22.77623         1.91712
C         40.32246        24.93373         1.68548
C         39.09923        25.56548         1.42149
C         40.36566        27.80713         1.03747
C         39.03764        27.02947         1.23896
C         40.32392        29.06419         0.28918
C         39.07220        29.68145        -0.01038
C         40.34944        31.80377        -0.48850
C         39.03861        31.04769        -0.47862
C         40.32356        33.09842        -1.29220
C         39.02932        33.71500        -1.55277
C         40.28962        35.93665        -1.71832
C         39.00708        35.23514        -1.83397
C         40.24797        37.37006        -1.51184
C         39.06201        38.10113        -1.49577
C         40.17607        40.10835        -0.58127
C         39.02781        39.48762        -1.07185
C         40.08431        41.34489         0.27076
C         38.93970        42.20880        -0.18631
C         40.18673        44.26363         0.75348
C         38.91707        43.56770         0.39398
C         40.18148        45.63451         0.91927
C         39.02387        46.46392         0.39335
C         40.24179        48.58430         0.93767
C         39.02300        47.93293         0.74787
C         40.31759        50.00268         0.82563
C         39.13973        50.76749         0.57849
C         40.45773        52.81415         0.56623
C         39.24424        52.18924         0.46950
C         42.86646        20.70216         2.12089
C         41.63562        21.40332         2.12528
C         42.87548        23.49383         1.84193
C         41.63005        22.81959         1.97684
C         42.90569        24.96650         1.77986
C         41.58502        25.72094         1.72414
C         42.81225        27.65477         0.69493
C         41.62220        27.06341         1.11166
C         42.77880        28.97688         0.10107
C         41.54958        29.62495        -0.12576
C         42.77762        31.64754        -1.00802
C         41.48139        30.89017        -0.94415
C         42.75102        32.95044        -1.52991
C         41.50673        33.74903        -1.64715
C         42.73549        36.00363        -1.70430
C         41.49643        35.21715        -1.81365
C         42.74986        37.33462        -1.22750
C         41.50869        38.09638        -1.35068
C         42.69152        40.07111        -0.16761
C         41.48610        39.53285        -0.83472
C         42.61688        41.35063         0.39428
C         41.39458        42.10858         0.42967
C         42.66189        44.12182         1.13338
C         41.40592        43.46115         0.80956
C         42.64995        45.55046         1.55167
C         41.36398        46.33333         1.46986
C         42.77388        48.45658         1.13074
C         41.43113        47.86792         1.54521
C         42.81968        49.88061         0.96065
C         41.60081        50.64655         0.87079
C         42.91116        52.72023         0.72478
C         41.66026        52.05971         0.73508
C         44.05980        21.37046         1.94104
C         45.35474        23.50103         1.61658
C         44.09069        22.78306         1.79846
C         45.35529        24.89908         1.30300
C         44.12466        25.62656         1.27078
C         45.30238        27.61579         0.45207
C         44.08177        26.95404         0.82009
C         45.25340        28.96198        -0.04602
C         44.01546        29.62745        -0.25479
C         45.25136        31.66077        -0.93763
C         44.00608        30.96377        -0.77434
C         45.24332        32.98517        -1.48789
C         44.01338        33.43612        -1.96883
C         45.21620        36.00850        -1.60139
C         43.99315        35.49955        -2.07459
C         45.17207        37.27717        -0.97521
C         43.95483        37.98831        -0.86042
C         45.12916        39.93688         0.11693
C         43.93488        39.33919        -0.27915
C         45.15886        41.21262         0.82516
C         43.82009        41.95783         0.99139
C         45.09072        44.00680         1.75642
C         43.83763        43.40649         1.22676
C         45.15331        45.53484         1.83890
C         43.92913        46.29937         1.52392
C         45.28979        48.32314         1.12325
C         43.95782        47.67525         1.27130
C         45.33481        49.83517         0.93435
C         44.05681        50.58221         0.90423
C         44.08191        51.98599         0.80368
C         47.79006        23.51649         1.52261
C         46.58257        22.83584         1.70492
C         47.81693        24.87672         1.21206
C         46.58643        25.58535         1.05954
C         47.76616        27.65105         0.28353
C         46.55169        26.96340         0.63470
C         47.72247        28.94046        -0.23326
C         46.47849        29.64084        -0.33923
C         47.75078        31.80204        -0.66320
C         46.47430        31.00299        -0.70636
C         47.69478        33.13968        -1.35408
C         46.45909        33.79265        -1.57655
C         47.67564        35.92747        -1.45334
C         46.44337        35.22354        -1.63158
C         47.69025        37.28546        -1.02347
C         46.43867        37.84570        -0.50304
C         47.68565        40.02855        -0.02047
C         46.43146        39.25123         0.03041
C         47.64657        41.39150         0.50522
C         46.43562        41.94675         0.93025
C         47.69393        44.00141         1.79253
C         46.39006        43.23286         1.65786
C         47.65135        45.48124         1.89455
C         46.47884        46.20807         1.81354
C         47.68715        48.37375         1.75370
C         46.50761        47.64726         1.62935
C         47.68738        49.81047         1.64014
C         46.56797        50.51572         1.34286
C         50.40198        24.91502         1.01009
C         49.11103        25.60348         1.13362
C         50.32708        27.59754         0.07814
C         49.07759        27.03980         0.61098
C         50.27004        28.84278        -0.69482
C         48.93101        29.57557        -0.81640
C         50.16534        31.66476        -1.36231
C         48.98017        31.01839        -1.02399
C         50.17472        33.12188        -1.53686
C         48.92166        33.82532        -1.51364
C         50.14251        35.98284        -1.53618
C         48.91937        35.24629        -1.56577
C         50.12453        37.37580        -1.26025
C         48.88602        38.01083        -0.89141
C         50.12862        40.12654        -0.45948
C         48.85072        39.39014        -0.43460
C         50.14080        41.53877         0.15352
C         48.88856        42.11871         0.67864
C         50.17576        44.11328         1.36039
C         48.93401        43.38854         1.25343
C         50.20541        45.46367         1.79684
C         48.94280        46.15957         2.10670
C         50.24636        48.34087         1.86306
C         48.95054        47.69837         2.11577
C         51.54734        25.60158         0.74871
C         52.79386        27.67662        -0.03824
C         51.55068        26.98246         0.30893
C         52.75593        28.98867        -0.57165
C         51.49414        29.62804        -0.85948
C         52.65156        31.62407        -1.72354
C         51.41236        30.93525        -1.32572
C         52.61187        33.12163        -1.93772
C         51.35439        33.85627        -1.72956
C         52.60761        36.03781        -1.88288
C         51.38486        35.29242        -1.71804
C         52.61019        37.43307        -1.58989
C         51.37908        38.06822        -1.16336
C         52.63572        39.96274        -0.18421
C         51.37536        39.37514        -0.63638
C         52.64267        41.34718         0.47664
C         51.40546        42.11741         0.60683
C         52.65429        44.10248         1.39411
C         51.41625        43.43746         1.10160
C         52.67349        45.46913         1.71449
C         51.42639        46.17744         1.85374
C         51.39842        47.62190         1.87002
C         55.24065        27.76219        -0.03424
C         54.06430        27.08936         0.22220
C         55.22680        29.08010        -0.56860
C         53.97356        29.69969        -0.83763
C         55.13730        31.72460        -1.63041
C         53.94927        31.01289        -1.38854
C         55.09200        33.12585        -2.06915
C         53.87894        33.86068        -1.98595
C         54.96660        35.81012        -2.82534
C         53.82575        35.26333        -2.20575
C         54.92410        38.05740        -2.44477
C         53.80338        38.30315        -1.62132
C         55.05314        40.27500        -0.74487
C         53.87081        39.48981        -0.83082
C         55.08948        41.52735         0.03018
C         53.92859        42.06420         0.55269
C         55.23595        44.13765         1.33166
C         53.91862        43.34962         1.27381
C         55.13291        45.58933         1.51849
C         53.93996        46.17859         1.77712
C         56.42207        29.79978        -0.84291
C         56.37727        31.08163        -1.34847
C         56.24844        33.78570        -2.53297
C         56.16164        35.09746        -2.98579
C         56.09406        38.81854        -2.38374
C         56.17530        39.89103        -1.50668
C         56.31572        42.30738         0.08785
C         56.38044        43.54871         0.63045
O         52.55825        32.17665        -3.08290
O         52.65925        40.10288         1.28551
O         44.40584        41.19549         2.09023
O         31.00308        37.53524        -2.59507
O         36.55133        29.92104        -1.73972
O         47.13506        43.24807         2.91702
O         44.93998        44.68475         3.02865
O         42.33876        25.61096         2.97781
O         41.80465        45.74564         2.75080
O         44.02309        34.42309        -2.96159
O         37.05191        37.87112        -2.95094
O         49.16415        26.74263         2.05376
O         54.88737        37.06988        -3.43328
O         45.49698        48.91636        -0.20649
O         30.92508        46.47698        -1.89459
O         41.69041        39.23607        -2.26433
O         36.08421        42.24853        -2.40550
O         38.93029        34.25822        -2.90874
O         36.26145        47.24391         1.82740
O         37.87162        43.54557         1.49776
O         28.83711        38.99076        -2.51726
O         33.58673        31.61570         1.19429
O         46.49131        38.09373         0.95247
O         28.74490        31.67242         1.43488
O         54.75406        43.36180         2.47569
O         50.10248        41.33594        -1.32466
O         49.46270        28.76471        -1.92515
O         30.95458        36.01367         0.61614
O         39.63038        27.81693         2.31230
O         48.94033        46.92915         3.35486
O         31.68944        26.22636        -1.27713
H         32.52181        25.72386        -1.40659
O         41.33358        48.22757         2.96126
H         41.66514        47.44688         3.46978
O         40.64604        32.18372         0.88567
H         39.84152        32.57436         1.28528
O         39.25221        46.49251        -1.09355
H         38.60437        45.87846        -1.52301
O         28.18675        44.46825         1.81188
H         28.15484        43.52218         2.06805
O         37.10517        44.61178        -1.95411
H         36.70540        44.12501        -2.71459
O         47.92202        32.14723         0.77029
H         47.14126        32.67521         1.04336
O         39.72850        40.89057         1.62251
H         39.45065        41.67953         2.13789
O         41.17044        30.49531        -2.31059
H         41.92644        29.98161        -2.66332
O         30.08147        31.39427        -1.94567
H         30.84010        31.73569        -2.46397
H         26.99264        26.92792         0.63118
H         25.74952        29.04481         0.55948
H         25.64953        31.46587         0.28850
H         25.68325        33.32013        -0.35779
H         25.62961        35.71747        -0.84703
H         25.67104        37.67373        -0.50051
H         25.69912        40.08178        -0.37068
H         25.69229        42.00127        -0.34706
H         25.73812        44.36679         0.23609
H         26.94574        46.51695         0.17268
H         29.11408        25.67644         0.45959
H         28.89310        47.75572        -0.65305
H         32.86514        23.82292         1.77658
H         30.76135        24.87283         1.20798
H         32.82160        49.90037         0.20965
H         30.71953        48.80559        -0.35943
H         34.52740        22.79392         1.59870
H         34.55302        50.80763        -0.14545
H         36.63203        21.66753         1.98289
H         36.67680        51.91134         0.15161
H         40.41869        19.61244         2.40065
H         38.27455        20.78696         2.21995
H         40.52814        53.90819         0.48261
H         38.34387        52.79653         0.31030
H         42.85879        19.60915         2.23893
H         42.94642        53.81361         0.62029
H         44.99149        20.79071         1.91444
H         45.04185        52.51634         0.75495
H         48.72948        22.96156         1.64775
H         46.62352        21.76765         1.95322
H         48.59674        50.35809         1.92209
H         46.58333        51.60936         1.43901
H         50.45051        23.82694         1.15827
H         50.29316        49.42503         1.69180
H         52.49438        25.04474         0.73551
H         52.34076        48.16931         1.73847
H         56.20627        27.28258         0.18140
H         54.11993        26.07894         0.64876
H         56.04882        46.19546         1.45259
H         53.93074        47.25953         1.96768
H         57.39144        29.32427        -0.63487
H         57.32092        31.61672        -1.52138
H         57.19790        33.24445        -2.63602
H         57.01725        35.58237        -3.47284
H         56.93570        38.56542        -3.04070
H         57.10946        40.46313        -1.47203
H         57.22214        41.91321        -0.38846
H         57.29913        44.14626         0.53189
