         430
 CSIRO Nanostructure Databank - Neutral Graphene Oxide Data Set
C         28.07064        27.23238        -0.24499
C         28.00851        28.64456        -0.19777
C         26.88077        29.33092         0.28379
C         27.99041        31.51514         0.01301
C         26.84964        30.71695         0.34919
C         27.96694        32.94201         0.15770
C         26.82716        33.65595         0.55210
C         27.95308        35.84897         0.37585
C         26.79897        35.04981         0.60471
C         27.93675        37.25881         0.54730
C         26.77503        37.99098         0.89947
C         28.06590        40.05609         1.23725
C         26.81239        39.34816         1.15700
C         28.12353        41.46252         1.65606
C         26.98956        42.14644         2.13915
C         28.19024        44.26522         2.10951
C         27.02814        43.51095         2.39618
C         28.25504        45.67522         2.36987
C         30.45987        27.27756        -0.84276
C         29.22387        26.57005        -0.62197
C         30.45030        28.70192        -0.78626
C         29.12530        29.42286        -0.84081
C         30.40916        31.57692        -0.53829
C         29.17777        30.86978        -0.43165
C         30.43925        32.99349        -0.35062
C         29.12773        33.73548        -0.39274
C         30.40454        35.84955         0.10586
C         29.19586        35.16738         0.08559
C         30.45079        37.26907         0.23297
C         29.16264        38.05631         0.18867
C         30.57087        39.99859         1.17643
C         29.22401        39.39695         0.87764
C         30.56299        41.51612         1.12990
C         29.32938        42.19693         1.45439
C         30.50098        44.40988         1.10419
C         29.33976        43.59878         1.61754
C         30.61430        45.77933         1.71590
C         29.43724        46.38076         2.21785
C         32.88069        24.49993        -1.53344
C         31.74399        25.15353        -1.21229
C         32.90740        27.32966        -1.15676
C         31.68934        26.59382        -1.06045
C         32.89579        28.74551        -1.00141
C         31.65148        29.43360        -0.84436
C         32.86150        31.59397        -0.79251
C         31.63805        30.87254        -0.73155
C         32.87049        33.00804        -0.60650
C         31.64605        33.68417        -0.33464
C         32.90586        35.87642        -0.33116
C         31.71399        35.09946         0.17860
C         32.88796        37.28544        -0.18782
C         31.66645        37.94940         0.15451
C         32.99429        40.04999         0.49785
C         31.63649        39.45639         0.19806
C         33.03084        41.51213         0.78934
C         31.74873        42.22883         0.96716
C         33.01579        44.35466         0.99558
C         31.80252        43.65844         1.04805
C         33.05521        45.78153         1.22429
C         31.85730        46.47265         1.59841
C         33.09585        48.57193         1.67869
C         31.92591        47.87672         1.84370
C         35.38436        23.13163        -0.94921
C         35.40856        24.50035        -1.28653
C         34.17480        25.20952        -1.81411
C         35.35424        27.36836        -1.38218
C         34.15446        26.66409        -1.39826
C         35.35488        28.78691        -1.22535
C         34.12072        29.47506        -1.06990
C         35.30496        31.63900        -1.12063
C         34.09894        30.90223        -0.98585
C         35.26966        33.06191        -1.11130
C         34.08752        33.74978        -0.79817
C         35.28773        35.94443        -0.98085
C         34.07162        35.19934        -0.72336
C         35.28905        37.36791        -0.89929
C         34.09018        38.05096        -0.46224
C         35.29934        40.24423        -0.49479
C         34.14949        39.40078        -0.13854
C         35.53786        41.51382         0.31910
C         34.25313        42.28989         0.52503
C         35.59366        44.33718         0.82922
C         34.25460        43.64035         0.71175
C         35.51024        45.83982         0.73199
C         34.29044        46.50104         1.11541
C         35.54127        48.63850         1.22008
C         34.30397        47.91224         1.31221
C         35.60508        50.03741         1.48256
C         37.80423        23.11903        -0.68598
C         36.55635        22.45504        -0.66248
C         37.82543        24.52359        -0.92127
C         36.61768        25.20232        -1.23545
C         37.88456        27.39174        -1.24387
C         36.65100        26.64478        -1.70280
C         37.84401        28.82339        -1.19116
C         36.58944        29.52571        -1.23986
C         37.78499        31.69366        -1.18812
C         36.55671        30.94026        -1.21941
C         37.77579        33.10205        -1.26076
C         36.48620        33.80524        -1.59341
C         37.71887        35.97796        -1.29923
C         36.49973        35.26479        -1.22953
C         37.70094        37.39680        -1.30334
C         36.48452        38.09118        -1.16991
C         37.74877        40.33159        -1.21140
C         36.47500        39.57371        -1.15897
C         37.80331        41.66504        -0.86675
C         36.66466        42.35630        -0.24333
C         37.78310        44.52450        -0.65619
C         36.67036        43.70356        -0.02782
C         37.87711        46.02769        -0.24899
C         36.66754        46.56740         0.50441
C         38.00277        48.63154         0.93886
C         36.73228        47.95746         0.85781
C         38.03321        50.01777         1.27148
C         36.80444        50.70611         1.47612
C         40.27903        20.29749        -0.23073
C         39.08487        20.98533        -0.37349
C         40.27553        23.12001        -0.51615
C         39.04724        22.39608        -0.50830
C         40.27490        24.54612        -0.72641
C         39.08175        25.24218        -0.91447
C         40.32247        27.42534        -0.84383
C         39.07343        26.69634        -1.02593
C         40.29340        28.88331        -0.83831
C         39.04578        29.56511        -1.00872
C         40.22601        31.73898        -0.90589
C         39.02017        30.99345        -1.03374
C         40.22130        33.15758        -1.00230
C         38.98234        33.84849        -1.20137
C         40.21882        35.99151        -1.30918
C         38.98440        35.27178        -1.31065
C         40.24503        37.40336        -1.52505
C         38.94812        38.11219        -1.67838
C         40.20860        40.41948        -1.96762
C         38.92787        39.61867        -1.75180
C         40.26016        41.68326        -1.14324
C         39.09047        42.37792        -0.88881
C         40.31830        44.49601        -0.54140
C         39.10892        43.78890        -0.56318
C         40.39740        45.83158        -0.09681
C         39.15035        46.40141         0.53595
C         40.46516        48.53438         0.79430
C         39.22078        47.90455         0.71366
C         40.51482        49.89445         1.35941
C         39.28994        50.68916         1.47375
C         40.61289        52.74013         1.77656
C         39.39346        52.04506         1.80926
C         42.78353        20.33067         0.05424
C         41.49903        21.00597        -0.14972
C         42.76050        23.11636        -0.07501
C         41.48157        22.40002        -0.28513
C         42.79400        24.57923        -0.33172
C         41.58230        25.26537        -0.99696
C         42.84851        27.47743        -0.77812
C         41.52168        26.75227        -0.74411
C         42.74086        28.95376        -0.46195
C         41.47301        29.62164        -0.64170
C         42.62915        31.79853        -0.41001
C         41.45044        31.05685        -0.63920
C         42.65477        33.19342        -0.61319
C         41.44270        33.88352        -0.92166
C         42.69345        36.00951        -1.10976
C         41.45579        35.29787        -1.11489
C         42.70633        37.40970        -1.36294
C         41.46567        38.09616        -1.58379
C         42.79667        40.26801        -1.74795
C         41.48910        39.54695        -1.92683
C         42.80631        41.70159        -1.43058
C         41.57848        42.34432        -0.83083
C         42.83991        44.50667        -0.83464
C         41.53014        43.83206        -1.15759
C         42.84955        45.87635        -0.48495
C         41.63051        46.54122        -0.07877
C         42.93700        48.61759         0.32155
C         41.68912        47.88852         0.39351
C         43.00661        50.00286         0.68135
C         41.85737        50.65300         1.32442
C         42.99730        52.83882         1.11414
C         41.80811        52.11538         1.41184
C         43.87965        20.99576         0.47055
C         45.11278        23.23226         0.87018
C         43.76543        22.45476         0.87923
C         44.89591        24.71159         1.25829
C         43.75240        25.39536         0.48983
C         45.07916        27.57714         0.49300
C         43.81968        26.85224         0.21676
C         45.09737        28.95631         0.27236
C         43.86068        29.64337        -0.06808
C         45.11306        31.82305        -0.00924
C         43.80424        31.11814         0.23072
C         45.12301        33.20298        -0.30896
C         43.89988        33.91565        -0.56562
C         45.18896        35.97671        -0.96339
C         43.92584        35.29820        -0.86063
C         45.21058        37.39064        -1.22776
C         43.98238        38.10589        -1.36795
C         45.25180        40.22735        -1.49012
C         44.02707        39.51377        -1.46628
C         45.26534        41.66836        -1.50577
C         44.02234        42.37460        -1.34884
C         45.27517        44.51424        -1.08584
C         44.03779        43.80563        -1.06079
C         45.26743        45.91521        -0.90403
C         44.08413        46.59154        -0.52481
C         45.34007        48.72929        -0.30347
C         44.10711        47.99260        -0.19202
C         45.37566        50.11498         0.02916
C         44.16618        50.77074         0.46774
C         44.13651        52.18710         0.70869
C         47.23296        23.42583         2.11653
C         46.15580        22.67179         1.81879
C         47.35457        24.81912         1.67516
C         46.21257        25.47901         1.21458
C         47.45837        27.61040         1.08820
C         46.24377        26.87818         0.92838
C         47.48695        29.01771         0.82812
C         46.30002        29.69997         0.45625
C         47.56317        31.81823         0.22196
C         46.31525        31.11867         0.21339
C         47.59609        33.19620        -0.11702
C         46.37469        33.89213        -0.42033
C         47.70912        35.86967        -1.18927
C         46.39278        35.25607        -0.78700
C         47.71535        37.37612        -1.20687
C         46.45784        38.09429        -1.34606
C         47.69748        40.21412        -1.98613
C         46.46622        39.49041        -1.50090
C         47.74875        41.67881        -1.57518
C         46.50881        42.38726        -1.47416
C         47.75196        44.52661        -1.30508
C         46.51106        43.80207        -1.31123
C         47.76655        45.93557        -1.20077
C         46.47597        46.70473        -1.32359
C         47.75191        48.78562        -0.77609
C         46.53335        48.09137        -0.74326
C         47.77134        50.15301        -0.40193
C         46.61005        50.80471        -0.04118
C         49.80850        24.88113         2.15675
C         48.59910        25.53267         1.78164
C         49.85909        27.66766         1.68677
C         48.64266        26.93088         1.50761
C         49.88385        29.07754         1.43311
C         48.70945        29.74842         0.96570
C         49.98980        31.84752         0.69085
C         48.75414        31.13071         0.62566
C         50.02696        33.20002         0.28433
C         48.84710        33.89796        -0.10645
C         50.11977        35.99904        -0.43019
C         48.91473        35.26331        -0.50890
C         50.15859        37.38914        -0.80462
C         48.92968        38.03975        -1.22392
C         50.26345        40.19761        -1.53687
C         48.98835        39.44268        -1.71040
C         50.23235        41.67437        -1.48501
C         48.97388        42.37068        -1.50575
C         50.21356        44.51731        -1.42191
C         48.99135        43.80969        -1.39474
C         50.22588        45.94621        -1.35858
C         48.98859        46.65139        -1.21533
C         50.19966        48.76067        -1.27543
C         48.99321        48.08441        -1.11546
C         50.98434        25.58068         2.30032
C         52.23828        27.74675         2.36046
C         51.04240        26.99064         2.10210
C         52.20083        29.15432         2.22482
C         51.06759        29.82343         1.68975
C         52.32722        31.94390         1.47787
C         51.14807        31.21467         1.28999
C         52.54761        33.21613         0.79161
C         51.31097        33.89558         0.17533
C         52.51729        36.06833         0.21360
C         51.33260        35.35653         0.00752
C         52.55010        37.47716        -0.11437
C         51.37086        38.11019        -0.66480
C         52.63696        40.21704        -0.89669
C         51.44374        39.50752        -0.97821
C         52.68308        41.63884        -1.18525
C         51.44055        42.36085        -1.35289
C         52.68788        44.47638        -1.40845
C         51.46836        43.79934        -1.42271
C         52.75174        45.95250        -1.72698
C         51.44573        46.67468        -1.46818
C         51.40539        48.06374        -1.46928
C         54.60371        27.84275         3.04961
C         53.46316        27.12431         2.78918
C         54.61276        29.27242         2.99536
C         53.34018        29.93887         2.71016
C         54.70622        32.11062         2.35658
C         53.39376        31.44976         2.34889
C         54.77774        33.48972         1.88297
C         53.68986        34.06546         1.17467
C         54.84790        36.20751         1.09754
C         53.70116        35.43404         0.79419
C         54.89772        37.68886         0.83374
C         53.72749        38.21533         0.04728
C         55.08706        40.18054        -0.55155
C         53.83343        39.55869        -0.43673
C         55.20476        41.56517        -1.14546
C         53.89283        42.32140        -1.14284
C         55.09656        44.45985        -0.88988
C         53.91068        43.75663        -1.20629
C         55.06096        45.89575        -0.77684
C         53.95490        46.61187        -1.09726
C         55.76153        30.03806         3.16905
C         55.79970        31.42027         2.86225
C         55.90148        34.29243         2.16301
C         55.92839        35.62558         1.77166
C         56.20414        38.16828         0.25018
C         56.27065        39.39708        -0.32885
C         56.32735        42.37520        -0.54352
C         56.27551        43.72942        -0.49897
O         41.39105        49.97045         2.53536
O         33.27003        40.47489         1.89319
O         52.29497        33.18254        -0.65227
O         38.70116        38.81417        -2.96413
O         35.45211        40.28508        -1.95185
O         43.06654        26.33981         1.38769
O         49.90509        39.59768        -2.86068
O         43.41386        23.65249        -1.28151
O         42.29839        39.85593        -3.10147
O         52.95639        30.98208         3.66103
O         46.29593        46.91510        -2.78094
H         46.27733        46.02892        -3.20233
O         55.56893        41.36776        -2.56249
H         55.65061        42.25755        -2.96635
O         31.30555        39.93719        -1.12961
H         30.50588        39.43688        -1.43885
O         34.33279        25.20423        -3.28632
H         33.55905        25.67528        -3.66334
O         44.50943        24.71508         2.66309
H         44.00948        25.55608         2.80569
O         30.87675        39.57452         2.53086
H         31.78563        39.90331         2.74162
O         40.09365        40.95065        -3.31317
H         39.86851        40.19137        -3.89739
O         43.22201        22.44721         2.21418
H         43.56616        23.24575         2.69244
O         31.96059        34.95043         1.62935
H         32.83982        34.52843         1.73489
O         36.00949        44.07600         2.21483
H         36.13441        43.10031         2.29835
O         43.57118        31.22898         1.68941
H         42.72767        30.76735         1.88408
O         41.36073        43.94819        -2.59499
H         41.29679        44.89927        -2.82094
O         37.46438        44.51319        -2.08982
H         37.53593        43.58777        -2.41039
O         30.16094        44.67741        -0.32676
H         29.30973        45.16629        -0.32756
O         36.38402        33.77572        -3.07089
H         37.14481        34.28321        -3.42634
O         54.80320        38.31995         2.17033
H         54.84115        39.29043         2.03050
O         41.79175        25.15775        -2.44935
H         42.31135        24.32586        -2.58592
O         43.39337        27.35370        -2.11840
H         42.90921        26.61674        -2.57195
O         41.74996        42.20176         0.61737
H         42.52756        42.74044         0.87947
O         39.01930        45.81634         1.85983
H         39.76659        46.12957         2.41081
O         28.99741        38.39903        -1.27168
H         28.12917        38.85099        -1.35648
O         52.96265        46.04487        -3.18463
H         53.79859        45.57377        -3.38676
O         28.77977        29.45042        -2.29327
H         28.68267        28.51515        -2.57495
O         47.51962        40.26027        -3.43665
H         48.42631        40.20954        -3.82525
O         35.96325        41.08277         1.65189
H         35.15731        40.70651         2.08962
O         45.70114        23.20713        -0.44464
H         45.61440        22.30291        -0.81026
O         37.96065        46.83250        -1.44578
H         37.51444        46.33716        -2.17040
O         36.74769        26.59963        -3.16203
H         35.97581        26.06431        -3.47864
O         47.85262        35.49297        -2.61701
H         48.67593        35.91213        -2.94895
O         28.83284        33.85504        -1.83915
H         27.95205        34.27934        -1.92125
H         27.18438        26.65116         0.05188
H         26.01312        28.75188         0.63483
H         25.93928        31.20253         0.72397
H         25.90916        33.11803         0.82758
H         25.85520        35.53313         0.89075
H         25.81109        37.47096         0.99471
H         25.87706        39.86508         1.40880
H         26.05824        41.59806         2.33535
H         26.14124        44.02075         2.79910
H         27.36533        46.18070         2.77158
H         29.21309        25.47295        -0.64546
H         29.45409        47.43150         2.53942
H         32.83758        23.41525        -1.70627
H         30.82190        24.56945        -1.08605
H         33.08712        49.65670         1.84393
H         31.02054        48.42782         2.12880
H         34.43788        22.57558        -0.94475
H         34.69116        50.60434         1.70080
H         36.50271        21.38174        -0.43840
H         36.80874        51.78350         1.68599
H         40.27709        19.20186        -0.14208
H         38.15029        20.40915        -0.39662
H         40.60797        53.82796         1.93798
H         38.48468        52.62949         2.00592
H         42.82867        19.24745        -0.13818
H         42.99769        53.93263         1.22756
H         44.82520        20.45884         0.64485
H         45.03615        52.78396         0.51123
H         48.03134        23.00363         2.74416
H         46.07781        21.63348         2.17424
H         48.71496        50.71433        -0.40361
H         46.66676        51.86760         0.22654
H         49.81221        23.79682         2.33153
H         50.23239        49.85812        -1.25521
H         51.88929        25.03241         2.59398
H         52.32585        48.64502        -1.61547
H         55.53265        27.31905         3.31883
H         53.50607        26.03018         2.87250
H         55.95709        46.40565        -0.39116
H         53.97604        47.70699        -1.00502
H         56.69949        29.53757         3.45054
H         56.77452        31.92311         2.93063
H         56.75310        33.87990         2.71960
H         56.79849        36.24327         2.03329
H         57.11722        37.57328         0.39495
H         57.23734        39.78615        -0.68030
H         57.24545        41.85401        -0.23597
H         57.13703        44.30331        -0.12432
