         621
 CSIRO Nanostructure Databank - Neutral Graphene Oxide Data Set
C          5.96508        31.62874        -0.25262
C          5.97672        32.99041        -0.13397
C          8.30613        27.29349        -0.83548
C          8.32294        28.67397        -0.61608
C          7.13208        29.45516        -0.49168
C          8.44396        31.51029        -0.15195
C          7.17781        30.83375        -0.29318
C          8.44227        32.93075         0.37952
C          7.19951        33.73237         0.06461
C          8.48160        35.85616         0.29565
C          7.24747        35.10358         0.11378
C          8.49258        37.25045         0.37254
C         10.75626        23.05672        -1.07032
C         10.74910        24.41305        -1.27245
C          9.51269        25.15497        -1.12265
C         10.84440        27.19960        -0.81174
C          9.50409        26.52602        -0.98697
C         10.76139        28.70071        -0.90742
C          9.59930        29.37891        -0.61156
C         10.92204        31.45822        -0.18147
C          9.63138        30.80951        -0.32944
C         10.95806        32.93667        -0.07432
C          9.69418        33.70187         0.02935
C         10.94658        35.84470         0.38384
C          9.72911        35.15740         0.32231
C         10.96250        37.26310         0.46391
C          9.71611        37.97760         0.45454
C         10.93723        40.12119         0.54543
C          9.72725        39.38936         0.49561
C         10.92749        41.54362         0.52787
C         13.36802        18.94608        -0.03912
C         13.31300        20.27000        -0.54645
C         12.10052        20.96352        -0.53766
C         13.23881        22.90020        -1.73076
C         11.95990        22.22520        -1.24535
C         13.18631        24.37391        -2.04636
C         11.96516        25.14826        -1.66409
C         13.16969        27.30914        -1.94716
C         11.97218        26.51798        -1.57823
C         13.20523        28.77770        -1.62041
C         12.00224        29.46065        -1.08181
C         13.38107        31.48490        -0.51421
C         12.10100        30.79977        -0.46065
C         13.50703        32.86983         0.03932
C         12.23171        33.60229         0.32953
C         13.51174        35.83197         0.30108
C         12.23226        35.09579         0.48029
C         13.44084        37.25058         0.44657
C         12.20934        37.97224         0.53837
C         13.38458        40.18465         0.63974
C         12.18974        39.40963         0.59026
C         13.35242        41.58442         0.60578
C         12.11228        42.30305         0.53857
C         13.25035        44.52396         0.39398
C         12.09340        43.74415         0.45528
C         13.27392        45.94801         0.33262
C         15.63738        14.73608         0.87301
C         15.79095        16.14542         0.58049
C         14.59838        16.86742         0.41635
C         15.80223        18.85424        -0.38438
C         14.57402        18.22550         0.01733
C         15.77982        20.21603        -0.84306
C         14.54767        20.91925        -0.97508
C         15.76134        22.99126        -1.54852
C         14.53800        22.26815        -1.41118
C         15.78151        24.39295        -1.85092
C         14.50959        25.09699        -2.16914
C         15.77883        27.30534        -1.89636
C         14.49486        26.59996        -2.15025
C         15.76867        28.75246        -1.81699
C         14.52872        29.35324        -1.17722
C         15.60023        31.66641        -1.54277
C         14.48260        30.85363        -1.03421
C         15.85550        32.98814        -0.92067
C         14.79508        33.64909        -0.08053
C         15.92575        35.96152        -0.10237
C         14.73565        35.15348         0.06219
C         15.90348        37.33828         0.05833
C         14.70302        37.99129         0.57334
C         15.92065        40.27205         0.43590
C         14.69279        39.50757         0.75975
C         15.89189        41.64006         0.35226
C         14.61861        42.33826         0.66643
C         15.77129        44.51750         0.01597
C         14.55545        43.83188         0.53135
C         15.74185        46.01433        -0.06398
C         14.46575        46.70852         0.24849
C         15.71974        48.85950         0.28869
C         14.50779        48.10679         0.38366
C         15.74135        50.24106         0.60150
C         18.21119        10.74049         2.39254
C         18.18277        12.05988         1.91530
C         16.88754        12.60340         1.57872
C         18.50691        14.95429         1.12406
C         16.62652        13.97792         1.50945
C         18.34087        16.14935         0.34170
C         17.04813        16.82131         0.26855
C         18.19788        18.68350        -1.03873
C         17.00923        18.11825        -0.29826
C         18.24799        20.18969        -1.08898
C         17.00897        20.90216        -1.09831
C         18.24363        23.00933        -1.44000
C         17.00444        22.30080        -1.36107
C         18.23695        24.43104        -1.58855
C         16.98293        25.12019        -1.82190
C         18.19775        27.31210        -1.55962
C         16.95825        26.57485        -1.87889
C         18.19905        28.82741        -1.56293
C         16.93117        29.50554        -1.93350
C         17.92619        31.87615        -2.54028
C         16.78391        30.97687        -2.15946
C         18.20392        33.00377        -1.78503
C         17.19200        33.30496        -0.79764
C         18.28728        36.05072        -0.97638
C         17.26545        35.42002        -0.32076
C         18.22275        37.55205        -1.04993
C         17.18214        38.07678        -0.05964
C         18.37484        40.32596        -0.16573
C         17.18789        39.55115         0.22686
C         18.37177        41.70199        -0.06048
C         17.11123        42.42027         0.15689
C         18.28610        44.61636         0.17052
C         17.05857        43.80102         0.11179
C         18.26841        46.08797        -0.00452
C         17.01414        46.77210        -0.00576
C         18.21025        48.92017        -0.14291
C         16.96205        48.16397         0.04040
C         18.18613        50.42509         0.16574
C         16.93075        51.00529         0.68105
C         18.21054        52.99631         1.41689
C         16.98864        52.27903         1.26913
C         18.23810        54.25039         2.09376
C         20.58933         6.78698         4.11259
C         20.59960         8.07442         3.52699
C         19.40080         8.76160         3.24019
C         20.67430        10.66120         2.31981
C         19.41698        10.04890         2.66866
C         20.66738        11.97436         1.74650
C         19.46060        12.70896         1.62388
C         20.72067        14.42613         0.24654
C         19.52180        14.01857         1.00836
C         20.70757        15.82860        -0.33943
C         19.49635        16.67353        -0.25279
C         20.69361        18.68760        -1.02183
C         19.51798        18.03517        -0.73544
C         20.70513        20.10402        -1.45535
C         19.44677        20.86789        -1.29570
C         20.72316        23.01970        -1.31263
C         19.48335        22.30158        -1.37115
C         20.67911        24.43920        -1.24672
C         19.46575        25.12337        -1.46058
C         20.76918        27.36154        -1.47836
C         19.50313        26.59034        -1.66433
C         20.69016        28.83574        -1.31193
C         19.51799        29.51841        -1.45037
C         20.75232        31.69628        -1.56508
C         19.58572        30.92757        -0.93028
C         20.74255        33.19060        -1.46595
C         19.47198        33.88929        -1.97063
C         20.67731        36.02966        -1.47943
C         19.48538        35.33744        -1.40979
C         20.74930        37.46090        -1.16721
C         19.59314        38.15861        -0.83522
C         20.85647        40.36754        -0.73644
C         19.62066        39.56802        -0.39487
C         20.73345        41.83719        -0.79755
C         19.59011        42.44588        -0.32718
C         20.79271        44.69070        -0.30023
C         19.59318        43.89056        -0.02677
C         20.76220        46.08707        -0.09758
C         19.49264        46.79522         0.00191
C         20.70105        48.96899         0.05347
C         19.50566        48.22930        -0.03916
C         20.70339        50.38174         0.25843
C         19.46583        51.07436         0.48136
C         20.70388        53.11004         1.09971
C         19.43792        52.37494         0.99025
C         20.69107        54.43124         1.81846
C         19.42314        54.95342         2.38405
C         20.66087        56.86682         3.38796
C         19.45405        56.16962         3.09963
C         20.72021        58.09687         4.03927
C         22.97541         4.19000         5.36224
C         21.78040         4.82496         5.02066
C         23.04943         6.75210         4.15387
C         21.78788         6.11250         4.42192
C         23.08756         8.01463         3.52784
C         21.85966         8.69074         3.18720
C         23.17901        10.45817         1.99805
C         21.87601         9.94721         2.55673
C         23.19187        11.94535         1.76647
C         21.94348        12.59701         1.38560
C         23.27038        14.48813         0.49821
C         21.98430        13.77968         0.67203
C         23.25920        15.91258         0.01711
C         22.01416        16.52955        -0.57186
C         23.20491        18.80844        -0.68047
C         21.99464        17.98316        -0.90983
C         23.23769        20.11847        -1.04807
C         22.02397        20.84861        -1.52138
C         23.19894        23.02727        -1.21356
C         22.00776        22.33324        -1.33559
C         23.19852        24.44486        -0.78599
C         21.89254        25.18522        -0.81383
C         23.25276        27.40616        -0.98065
C         21.91121        26.71479        -0.70753
C         23.24453        28.81055        -1.00947
C         21.95340        29.53344        -0.92760
C         23.25793        31.73451        -1.23021
C         21.98688        31.03944        -0.99439
C         23.21393        33.14639        -1.45135
C         21.93976        33.85809        -1.50375
C         23.22477        36.04689        -1.66817
C         21.93082        35.31731        -1.95015
C         23.21536        37.48340        -1.63659
C         22.02091        38.15660        -1.33929
C         23.25772        40.44058        -1.55877
C         21.98714        39.64394        -1.39257
C         23.26624        41.92054        -1.27887
C         21.94833        42.64041        -1.05934
C         23.23258        44.70685        -0.51235
C         21.99592        44.02818        -0.57481
C         23.21475        46.10996        -0.25061
C         21.98805        46.78824        -0.10157
C         23.24865        48.95315        -0.07616
C         21.98981        48.22339         0.34882
C         23.23282        50.44158         0.09810
C         21.95189        51.08582         0.46448
C         23.23197        53.04796         1.26578
C         21.98295        52.38809         0.94232
C         23.25145        54.30939         1.86843
C         21.98559        54.88566         2.39142
C         23.18691        57.01869         3.07821
C         21.95454        56.18578         3.11579
C         23.20661        58.21161         3.92928
C         21.96863        58.74048         4.38147
C         23.21761        60.55885         5.42844
C         21.99938        59.93723         5.13429
C         24.20350         4.81087         5.14283
C         25.50285         6.76190         4.37126
C         24.27178         6.10109         4.54796
C         25.56574         8.05703         3.80181
C         24.34953         8.67194         3.33021
C         25.61533        10.65594         2.67559
C         24.40077         9.94261         2.72308
C         25.63520        12.01606         2.21722
C         24.39414        12.62825         1.75150
C         25.56212        14.76530         1.42338
C         24.43193        14.00365         1.29190
C         25.50747        16.23394         1.22145
C         24.28012        16.83840         0.61320
C         25.53551        19.09777         0.42289
C         24.29427        18.28121         0.18221
C         25.72039        20.28951        -0.42040
C         24.53542        20.82682        -1.08588
C         25.76642        23.04702        -1.02727
C         24.51051        22.35273        -1.30406
C         25.78815        24.51532        -0.86681
C         24.48006        25.23654        -0.74531
C         25.72914        27.35595        -1.11865
C         24.49607        26.69337        -1.00087
C         25.76722        28.83569        -0.78981
C         24.45418        29.56721        -1.03142
C         25.71612        31.74467        -1.19586
C         24.44812        30.97374        -1.16669
C         25.68679        33.10104        -1.87264
C         24.41170        33.87889        -1.62303
C         25.73182        35.97921        -1.69914
C         24.41278        35.29706        -1.68648
C         25.80475        37.46869        -1.63442
C         24.51064        38.22592        -1.77874
C         25.70109        40.28433        -0.79225
C         24.56997        39.71418        -1.61501
C         25.60488        41.70787        -0.31110
C         24.46854        42.57039        -0.73857
C         25.73510        44.61770        -0.20725
C         24.45504        43.92566        -0.49088
C         25.65651        46.02596         0.26655
C         24.46149        46.82392        -0.03580
C         25.77723        48.88638         0.27373
C         24.52001        48.19701         0.09027
C         25.77558        50.36976         0.20797
C         24.49927        51.10756         0.45429
C         25.74030        52.86482         1.72689
C         24.49000        52.34283         1.04105
C         25.71229        54.34087         2.01893
C         24.49683        54.97281         2.18786
C         25.73649        56.99989         3.12445
C         24.48023        56.39066         2.62773
C         25.67996        58.21530         3.81533
C         24.44733        58.83233         4.22066
C         24.42782        60.02560         4.98970
C         26.78911         8.75576         3.68818
C         28.04034        10.82147         3.13767
C         26.83383        10.06907         3.17564
C         28.05477        12.17043         2.73570
C         26.80786        12.76347         2.32050
C         28.02709        15.01153         2.14527
C         26.75560        14.21700         2.09444
C         28.08160        16.35313         1.48389
C         26.79707        16.99456         1.09405
C         28.07360        19.17105         0.82835
C         26.74286        18.51478         1.16397
C         28.11374        20.41130         0.23354
C         26.92809        20.96983        -0.42487
C         28.23586        23.01529        -1.13244
C         26.94288        22.34262        -0.87652
C         28.18575        24.45224        -1.58935
C         26.98547        25.25115        -1.28308
C         28.23646        27.35213        -1.61754
C         26.98139        26.64553        -1.33340
C         28.20366        28.83103        -1.78288
C         26.94646        29.55319        -1.42115
C         28.25730        31.74510        -1.62379
C         27.02812        31.02680        -1.19506
C         28.21755        33.11256        -1.66937
C         26.96219        33.84405        -1.56648
C         28.16924        35.92102        -1.02500
C         26.93721        35.19300        -1.37831
C         28.15761        37.39300        -0.87600
C         27.02821        38.14002        -1.08759
C         28.13880        40.18795        -0.23590
C         27.00649        39.55819        -0.72569
C         28.09480        41.57081         0.33295
C         26.78107        42.37436         0.41538
C         28.18995        44.55894         0.59527
C         26.97799        43.84348         0.06867
C         28.18427        45.93596         0.68547
C         26.92916        46.72722         0.64232
C         28.24523        48.87242         0.67044
C         26.96424        48.19783         0.50938
C         28.30333        50.28662         0.68427
C         27.07147        51.07778         0.47390
C         28.21256        53.07911         1.38703
C         27.03486        52.41520         1.10173
C         28.18244        54.34938         2.03025
C         26.96696        55.01342         2.30894
C         26.94652        56.30851         2.88219
C         29.26501        12.93757         2.71296
C         30.48367        15.07398         2.32886
C         29.31019        14.30603         2.38047
C         30.49862        16.49904         2.11107
C         29.27357        17.19985         1.74937
C         30.42607        19.39063         1.72823
C         29.24810        18.55067         1.43441
C         30.49680        20.78850         1.17273
C         29.22823        21.39983         0.55352
C         30.73221        23.31144        -0.43816
C         29.48500        22.42663        -0.55751
C         30.77827        24.42866        -1.52361
C         29.48247        25.19784        -1.73738
C         30.70330        27.40243        -1.84577
C         29.44348        26.68222        -1.73848
C         30.70627        28.86046        -2.26542
C         29.46815        29.61872        -1.86842
C         30.74361        31.75993        -2.06386
C         29.48652        30.99666        -1.85724
C         30.72200        33.14980        -2.07310
C         29.41699        33.92010        -2.09044
C         30.68727        36.06153        -1.38166
C         29.46982        35.22151        -1.28479
C         30.66525        37.37682        -1.03903
C         29.44505        38.00406        -0.37276
C         30.62419        40.20523        -0.21478
C         29.43615        39.52062        -0.32197
C         30.67934        41.60872         0.23959
C         29.38743        42.32890         0.48519
C         30.65289        44.48071         0.59645
C         29.43841        43.81881         0.58474
C         30.72021        45.88984         0.98825
C         29.39538        46.67081         1.05056
C         30.69059        48.79877         1.00168
C         29.43585        48.13570         0.89451
C         30.70185        50.22056         1.04104
C         29.52177        50.95797         0.92645
C         29.54204        52.47833         0.95448
C         31.70340        17.19691         2.11650
C         33.01352        19.34240         1.74869
C         31.74840        18.65647         2.05201
C         33.09661        20.60603         1.20492
C         31.85723        21.40138         0.90994
C         33.23353        22.68570        -0.58952
C         31.96733        22.44426        -0.14601
C         33.33661        24.70886        -1.41524
C         32.01575        25.26707        -1.73000
C         33.11085        27.50450        -1.35521
C         31.89976        26.74051        -1.74617
C         33.16871        28.92028        -1.73687
C         31.99589        29.62014        -1.99956
C         33.27160        31.76386        -2.34782
C         31.98663        31.03582        -2.16363
C         33.29788        33.27292        -2.32520
C         31.94953        34.01366        -2.34116
C         33.23882        36.00515        -1.32359
C         31.95577        35.28455        -1.50623
C         33.20613        37.49701        -1.37862
C         31.89100        38.20176        -1.19629
C         33.20516        40.31325        -0.51897
C         31.89478        39.62892        -0.74402
C         33.21675        41.68204        -0.20014
C         31.95995        42.36799         0.18039
C         33.20175        44.54262         0.39258
C         31.90243        43.86711        -0.00320
C         33.18261        45.93315         0.65473
C         31.97521        46.66078         0.83189
C         31.92143        48.05138         0.97218
C         34.37057        21.23150         0.96625
C         35.56101        23.25761         0.07782
C         34.45025        22.36500         0.14547
C         35.58131        24.62511        -0.35544
C         34.40455        25.34005        -0.86780
C         35.64582        27.53542        -0.89345
C         34.34901        26.82690        -0.83613
C         35.70360        28.87084        -1.26622
C         34.49774        29.55181        -1.80886
C         35.84501        31.74938        -1.92318
C         34.56216        30.99989        -2.16621
C         35.84024        33.26123        -1.86753
C         34.54874        33.99862        -1.92047
C         35.73831        36.05445        -1.17393
C         34.53605        35.32760        -1.57634
C         35.71335        37.42488        -0.89941
C         34.49321        38.22995        -1.13210
C         35.65798        40.29105        -0.34370
C         34.43283        39.63201        -0.66909
C         35.64474        41.67541        -0.04975
C         34.43346        42.39734        -0.00039
C         34.38645        43.80379         0.31976
C         36.73180        25.39835        -0.13590
C         38.04644        27.45313        -0.44883
C         36.83354        26.79589        -0.48224
C         38.21650        28.82039        -1.04573
C         36.93472        29.60601        -1.19044
C         38.15963        31.73553        -0.95528
C         36.99049        30.99866        -1.34449
C         38.15324        33.15348        -0.88180
C         36.99572        33.92536        -1.21695
C         38.12297        35.99561        -0.47808
C         36.95424        35.30562        -0.97096
C         38.08989        37.37707        -0.26909
C         36.89838        38.12894        -0.47525
C         36.86414        39.52109        -0.27476
C         39.32130        29.62508        -0.43174
C         40.47227        31.73639         0.00468
C         39.31646        30.99693        -0.46446
C         40.47753        33.09235         0.03053
C         39.31103        33.85162        -0.36245
C         39.29594        35.22803        -0.20732
O         21.84188        30.37132         0.28449
O         29.11133        22.09689        -1.90320
O         12.42629        29.57134        -2.53807
O         26.03890        36.76919        -2.91431
O         17.61831        38.54868         1.24285
O         26.70643        44.30153        -1.29151
O         21.39516        20.34870        -2.73683
O         27.19122        29.23037        -2.81152
O         34.74685        30.00313        -3.21858
O         20.53520        14.63471        -1.19570
O         10.29675        33.47624        -1.29223
O         31.52124        41.82411         1.45911
O         19.10315        44.19598         1.33181
O         31.69832        39.27519        -2.17571
O         14.84586        38.63323         1.91069
O         24.39121        19.20993         1.33808
O         17.59669        14.77614         2.16232
O         12.42646        22.12181        -2.65667
O         24.70363        21.41348        -2.41065
O         25.12440        40.58349         0.53567
O         20.39574        26.91500        -2.81143
O         32.59653        35.30399        -0.18376
O         33.95890        38.00946        -2.50591
O         30.05509        46.17934         2.25768
O         18.96505        31.25752         0.06440
O         20.70400        54.40459         0.36414
O         17.90788        18.32528        -2.51435
O         28.75437        24.67282        -2.90898
O         19.69966        33.93413        -3.37089
O         12.20754        34.19057         1.65788
O         18.03026        28.04673        -0.30037
O         26.01308        46.21062         1.68449
O         26.47324        31.58399         0.04127
O         33.39042        32.55138        -3.60235
O         28.90985        35.19306         0.06191
O         13.72683        27.11197        -3.28405
O         20.65401        39.85286         0.62062
O         31.44023        24.40179        -2.79812
O         23.75180        14.85565        -0.85816
O         24.43911        16.78450         2.07177
O         17.54450        34.17535         0.22474
O         36.22757        32.54840        -3.09453
O         24.75268        39.14515        -2.92418
O         22.59433        42.60843        -2.37875
O         15.65287        31.41706        -3.01873
O         18.12032        49.92610        -1.20334
O         30.90396        19.30006         3.08681
O         27.13701        15.00060         3.30839
O         23.70199        57.25460         1.72041
O         22.20225        16.95466        -1.95910
O         31.08597        21.74833         2.11275
O         27.64665        16.40363         0.06548
O         22.04527        54.91990         3.87161
O         26.54184        50.96364        -0.90689
O         23.17781        49.79876        -1.24343
O         15.60665        45.17220        -1.28558
O         13.79745        24.60073        -3.35148
O         14.75172        43.22781         1.84595
O         33.45391        23.36982        -1.78077
O         14.45825        32.92367         1.15389
O         28.75063        41.66974         1.63561
O         22.39539        40.15080        -2.69301
O         33.38056        27.37394         0.13499
O         25.26265        24.91356         0.46348
O         22.40906        24.61711         0.44609
O         21.91594        35.29256        -3.40417
H         21.06936        34.79624        -3.65700
O         17.75845        38.00954        -2.35703
H         18.30982        37.57212        -3.04139
O          8.48463        32.80838         1.83888
H          7.65054        32.38206         2.12798
O         30.60478        52.95292         1.78130
H         30.46450        52.61299         2.68860
O         26.57937        18.82860         2.56942
H         25.61156        18.77896         2.76127
O         18.50698        31.56261        -3.70730
H         18.06883        30.79222        -4.11800
O         31.77448        44.05476        -1.45042
H         31.95713        44.99546        -1.65736
O         30.55677        24.11196         0.76022
H         30.49524        23.49059         1.53115
O         22.08636        48.18516         1.81544
H         21.44450        47.52241         2.14870
O         38.66089        28.56413        -2.44618
H         38.58610        29.41308        -2.93434
O         14.65728        28.84195         0.19750
H         15.52208        29.13227         0.56252
O         21.59020        27.03516         0.66941
H         22.04462        26.36762         1.23472
O         28.62813        22.21115         1.60818
H         28.56903        21.66814         2.42368
O         29.15595        34.31933        -3.46904
H         30.02550        34.57724        -3.87083
O         11.21762        26.97637         0.60535
H         10.48739        27.32383         1.16129
O         23.25750         9.86695         0.64496
H         24.05656        10.23147         0.20790
O         30.63849        28.76016        -3.72921
H         30.50234        29.66107        -4.09256
O         25.67542        32.79472        -3.29790
H         25.74299        33.63746        -3.79601
O         31.80934        34.53575        -3.70373
H         32.21121        33.85554        -4.29878
O         26.01857        28.88135         0.64744
H         25.21525        28.56616         1.11316
O         26.38756        42.44623         1.79940
H         26.20363        41.53225         2.10806
O         29.57851        37.62871         1.03499
H         29.44409        36.64819         1.08421
O         25.72359        52.20886         3.05779
H         24.95502        52.56655         3.55276
O         17.84481        16.89322        -2.61259
H         18.74895        16.64249        -2.92693
O         20.83899        31.41472        -2.98751
H         20.51510        32.23305        -3.46241
H          5.00692        31.10561        -0.38955
H          5.03146        33.55095        -0.19588
H          7.33942        26.77302        -0.91539
H          6.15625        28.95185        -0.56679
H          6.31822        35.67935        -0.02317
H          7.54437        37.80777         0.34410
H          9.83209        22.55532        -0.74476
H          8.56830        24.58993        -1.10274
H          8.77188        39.93464         0.47089
H          9.95718        42.06093         0.48739
H         12.43443        18.46097         0.28252
H         11.22608        20.52911        -0.03064
H         11.11190        44.23885         0.39832
H         12.31663        46.48704         0.40510
H         14.69071        14.26050         0.57532
H         13.64162        16.36739         0.62914
H         13.57572        48.64829         0.60593
H         14.79731        50.71694         0.90772
H         17.25799        10.23144         2.59978
H         16.08293        11.88759         1.35219
H         16.06274        52.73199         1.65404
H         17.28348        54.65874         2.45884
H         19.62536         6.30762         4.34034
H         18.43661         8.28888         3.47911
H         18.50085        56.61249         3.42679
H         19.78447        58.59902         4.32825
H         22.94645         3.19286         5.82345
H         20.81816         4.33148         5.21916
H         23.21870        61.48755         6.01624
H         21.05698        60.38334         5.48255
H         25.13570         4.30717         5.43639
H         26.43115         6.27383         4.70393
H         26.62268        58.68460         4.13614
H         25.37431        60.52771         5.23547
H         27.71475         8.28191         4.04700
H         28.97296        10.34873         3.47974
H         29.13628        54.84954         2.25300
H         27.89861        56.77655         3.17498
H         30.20525        12.42479         2.96699
H         31.44761        14.58181         2.52921
H         31.65778        50.75136         1.16096
H         29.76336        52.84165        -0.08751
H         32.65234        16.64412         2.18367
H         33.94303        18.77150         1.89849
H         34.13984        46.47124         0.73782
H         32.86340        48.62077         0.95323
H         35.26195        20.83988         1.47802
H         36.47567        22.92043         0.59443
H         36.59291        42.18787         0.16976
H         35.33913        44.31281         0.53397
H         37.63489        24.90851         0.25997
H         38.95425        26.91124        -0.14247
H         38.99608        37.89388         0.07989
H         37.79450        40.03522         0.00952
H         40.21802        29.09387        -0.07755
H         41.35188        31.16551         0.33560
H         41.35999        33.64258         0.38802
H         40.18982        35.74102         0.17760
