         294
 CSIRO Nanostructure Databank - Neutral Graphene Oxide Data Set
C          1.38347         2.26564         1.66712
C          1.30373         3.54845         1.07752
C          2.59267         1.62626         1.84627
C          2.44975         4.29389         0.75654
C          1.19429         6.40408         0.40894
C          1.16606         7.74095         0.13134
C          2.38802         5.62885         0.29938
C          2.25803         8.43969        -0.56587
C          1.38390        10.74518         0.20801
C          1.54918        12.07278         0.41608
C          2.26783         9.95397        -0.67246
C          2.53121        12.88121        -0.27663
C          1.39805        14.99952         0.36401
C          1.26331        16.35012         0.35052
C          2.48304        14.26455        -0.26690
C          2.32623        17.22936        -0.17446
C          2.39444        18.68364         0.16568
C          3.81418         2.23739         1.38775
C          3.80323         3.73431         1.16702
C          4.92855         1.48748         1.16720
C          4.95256         4.21676         0.33284
C          3.66445         6.39430         0.02655
C          3.51459         7.62457        -0.91264
C          4.82980         5.50218        -0.44349
C          4.82742         8.40465        -0.86573
C          3.51941        10.63918        -1.16613
C          3.42930        12.19222        -1.29227
C          4.80768         9.83911        -1.21220
C          4.84686        12.90082        -1.46429
C          3.54433        15.03891        -1.05584
C          3.54899        16.54470        -0.69341
C          4.87541        14.33454        -0.90253
C          4.87093        17.29895        -0.57337
C          3.56108        19.34738         0.17217
C          4.83456        18.54849         0.36822
C          6.13524         1.99476         0.42303
C          6.12346         3.49935         0.21871
C          7.43753         1.46828         0.95209
C          7.33212         4.15905        -0.17678
C          6.12158         6.29669        -0.41992
C          6.07221         7.73166        -0.72297
C          7.31259         5.57995        -0.31416
C          7.29461         8.42395        -0.90916
C          6.08494        10.60585        -1.02167
C          6.04390        12.09087        -0.95189
C          7.37635         9.86293        -1.36603
C          7.34655        12.84015        -1.03069
C          6.03919        14.98066        -0.64761
C          6.09028        16.42076        -0.18459
C          7.30552        14.19894        -0.34260
C          7.38839        17.16330        -0.61099
C          6.14776        19.26815         0.17752
C          7.35675        18.60459        -0.08579
C          8.62159         2.34900         1.01524
C          8.58873         3.34890        -0.25188
C          9.90267         1.54523         0.96449
C          9.90448         4.11040        -0.26438
C          8.58500         6.28162        -0.60672
C          8.55115         7.78283        -0.38308
C          9.88643         5.54434        -0.61186
C          9.84967         8.45329        -0.87413
C          8.63270        10.59299        -0.89614
C          8.62114        12.07275        -0.94815
C          9.79345         9.94051        -0.65023
C          9.85619        12.79904        -0.56152
C          8.60488        14.98516        -0.43295
C          8.60401        16.37025        -0.18352
C          9.79687        14.23342        -0.51749
C          9.86663        17.10513         0.05774
C          8.56493        19.30034         0.06306
C          9.86477        18.62123         0.39770
C         11.03152         2.04373         0.41651
C         11.08467         3.44659        -0.01316
C         12.27170         1.21415         0.23464
C         12.37956         4.12404         0.08248
C         11.21366         6.30971        -0.61495
C         11.05609         7.79907        -0.15460
C         12.32170         5.62659         0.21260
C         12.36566         8.55777        -0.35748
C         11.02872        10.63013        -0.11443
C         11.04139        12.11324        -0.35566
C         12.34862         9.91803        -0.42106
C         12.23904        12.82033         0.17030
C         11.09940        14.92425        -0.75414
C         11.10909        16.39964        -0.40409
C         12.21558        14.31053         0.08686
C         12.41964        16.92981        -0.95414
C         11.11901        19.29100        -0.10993
C         12.39139        19.02315         0.43298
C         13.55407         2.00734         0.40919
C         13.53817         3.46763         0.44371
C         14.71605         1.31106         0.41816
C         14.74340         4.20533         1.09589
C         13.68224         6.29446        -0.12727
C         13.58324         7.82821         0.18258
C         14.78144         5.69341         0.72220
C         14.90084         8.51144        -0.10692
C         13.61410        10.71991        -0.38154
C         13.58746        12.15922         0.02863
C         14.93089        10.01106        -0.26237
C         14.81270        12.81778         0.64757
C         13.48592        15.05596         0.20100
C         13.60024        16.33663        -0.27048
C         14.63596        14.36469         0.82860
C         14.90350        17.09486        -0.39068
C         13.59842        19.33725        -0.24598
C         14.84132        18.60212         0.03963
C         16.03213         1.97258         0.50330
C         16.10132         3.42227         0.89621
C         17.10107         1.36270        -0.31717
C         17.37271         4.11153         0.52262
C         15.81332         6.53623         1.05223
C         16.05887         7.84639         0.49977
C         17.65212         5.37914         0.91258
C         17.31367         8.49784         0.44077
C         16.14781        10.72701         0.19979
C         16.12652        12.07788         0.57035
C         17.35374         9.91000         0.28604
C         17.44393        12.61167         1.20167
C         15.77303        15.27020         1.05263
C         16.01549        16.41452         0.37283
C         17.65538        14.10321         1.23672
C         17.35088        17.12534         0.36523
C         15.95561        19.23104         0.48515
C         17.20889        18.53919         0.99856
C         18.25742         2.01141        -0.62334
C         18.58684         3.28169         0.11255
C         19.27504         1.43713        -1.48064
C         19.70953         4.09041        -0.50031
C         18.56066         6.25682         0.09520
C         18.64917         7.72299         0.60561
C         19.87822         5.51261        -0.11403
C         19.75048         8.45197        -0.16600
C         18.64504        10.59971         0.33554
C         18.65606        11.98040         0.57371
C         19.84687         9.89230         0.13822
C         19.94150        12.76386         0.56015
C         18.63239        14.87092         0.70772
C         18.58813        16.37264         0.98768
C         19.81556        14.21255         0.02090
C         19.79468        17.12627         0.45369
C         18.48894        19.36815         0.73175
C         19.79830        18.58190         0.74369
C         20.41821         2.11380        -1.76801
C         20.63565         3.48009        -1.31381
C         21.76985         4.22702        -1.83225
C         21.07119         6.26488        -0.63568
C         20.94468         7.76291        -0.73982
C         21.97879         5.53396        -1.53974
C         22.19049         8.56396        -0.86692
C         21.18842        10.54839         0.32834
C         21.10130        12.02148        -0.15245
C         22.30116         9.80604        -0.37778
C         22.35772        12.81616         0.05920
C         21.12697        14.92689         0.29852
C         21.12360        16.39929         0.29448
C         22.31995        14.17947         0.28731
C         22.33220        17.20449         0.51736
C         20.98900        19.24244         0.79715
C         22.24919        18.54467         0.72404
O         15.14682         9.10807        -1.40174
O         21.00500         5.80656         0.76300
O         10.81013        16.47876         1.01680
O          9.14044         5.80768        -1.87401
O         16.34631         2.38255         1.91979
O          2.61508        17.18090        -1.63266
O         16.68235        14.78340         2.00967
O         13.73135        11.80153        -1.38339
O          1.65064         9.14642        -1.71798
O         16.84287         6.02204         1.86450
O         10.82852         7.88754         1.25352
O         14.43636        13.42050         1.91988
O          5.99157        11.30301         0.27714
O         19.82993         8.17110        -1.62623
O         11.88654        13.63106         1.33177
O         12.51069        17.57831        -1.99362
O          5.06056        13.08790        -2.84277
O          8.09690        12.63907        -2.24798
O          4.01303        10.08227        -2.42075
O         20.26698        16.81914        -0.88301
O         12.03417         5.79063         1.61626
H         12.76313         5.37525         2.13165
O         14.11237         6.05553        -1.47195
H         13.36392         6.26586        -2.08346
O         21.49281        10.56646         1.75656
H         21.33933         9.66499         2.11369
O          8.34511         8.03027         1.01834
H          9.26711         7.97547         1.45359
O         13.44782         7.97437         1.61919
H         12.47717         7.81215         1.82592
O          9.89630        18.69325         1.86462
H          9.19846        18.09893         2.21354
O         17.02767        18.46654         2.42606
H         16.15022        18.07243         2.61103
O         17.71754        17.32408        -1.02226
H         16.90014        17.32588        -1.58008
O         17.93009         6.29628        -1.21329
H         18.42049         6.96105        -1.76013
O         18.38555        19.95896        -0.57145
H         18.34408        19.20877        -1.21078
O          7.47429         9.82499        -2.82541
H          7.52871        10.76354        -3.13095
O         19.59046        14.22063        -1.41106
H         19.64916        15.17166        -1.68495
O         15.19214        17.13302        -1.81484
H         14.36902        17.45753        -2.26410
O         19.04432         7.74058         1.98575
H         18.36069         7.24732         2.49519
O          7.55516        17.21658        -2.04447
H          6.69243        17.51164        -2.43253
O         19.11015         2.83432         1.41271
H         18.34296         2.44412         1.89924
O         11.49356        14.73020        -2.13160
H         10.69778        14.77463        -2.70251
O          6.03576         1.41023        -0.91129
H          6.86916         1.66433        -1.38580
O         20.28460        12.97395         1.95279
H         20.58197        12.10558         2.32023
O          4.74082        18.27770         1.79293
H          5.47939        17.67662         2.05197
O          8.60890         3.24979         2.14656
H          8.76000         2.72484         2.95936
O         17.37086        12.18289         2.59702
H         16.67635        12.73569         3.02063
O         14.45552         4.15483         2.51657
H         14.92737         3.36406         2.87281
O          4.63996         5.04300        -1.81102
H          4.34994         5.80933        -2.36473
O          7.19123        13.85551         1.09033
H          8.01386        13.39787         1.37150
O          9.94910         8.28194        -2.30861
H          9.15338         8.70072        -2.72195
O          4.05087         6.95596         1.30954
H          4.16754         6.20258         1.94169
O         12.53950        18.37872         1.61544
H         11.64132        18.19134         1.99047
O          3.24276        14.98992        -2.46556
H          3.88601        14.35695        -2.89677
O         20.85820        11.89955        -1.56805
H         20.51167        12.76652        -1.89703
O          8.54332         2.48679        -1.42325
H          8.63079         3.06612        -2.21118
O         11.64147         6.30504        -1.99210
H         10.92227         6.74574        -2.51360
O         10.92228        10.53839         1.34134
H         10.88849         9.55306         1.55615
O          3.33173         7.22121        -2.29038
H          3.02692         8.03058        -2.77080
O         12.25206         0.63876        -1.08798
H         12.15366         1.36805        -1.73427
O          2.73470        12.35503        -2.53308
H          3.46286        12.48394        -3.20592
O         18.66626        16.55229         2.40814
H         17.93703        16.03794         2.82169
O          4.04136         4.34675         2.50007
H          3.35577         3.99287         3.10732
O          5.08780        17.86540        -1.89188
H          4.20006        17.88497        -2.32956
O          6.18895        16.31670         1.26663
H          6.54273        15.41674         1.49405
H          0.45097         1.75029         1.93618
H          0.30721         3.95042         0.84803
H          2.62253         0.58948         2.21201
H          0.28133         5.93326         0.80046
H          0.22040         8.28708         0.25507
H          0.57264        10.22249         0.73330
H          0.86822        12.56572         1.12434
H          0.58607        14.41749         0.82382
H          0.38178        16.81443         0.81746
H          1.43719        19.22905         0.18381
H          4.90011         0.40722         1.38041
H          3.58985        20.43915         0.30858
H          7.63604         0.42667         0.63860
H          6.20914        20.31357         0.52714
H          9.88469         0.50690         1.33265
H          8.51333        20.37065         0.32407
H         12.26916         0.35515         0.95254
H         11.07939        19.75810        -1.10412
H         14.69738         0.21463         0.32317
H         13.56337        20.01264        -1.11546
H         16.87916         0.38772        -0.77921
H         15.88900        20.30813         0.70946
H         19.10187         0.43286        -1.89525
H         18.54174        20.20373         1.47361
H         21.18325         1.65719        -2.41297
H         22.45059         3.70859        -2.52378
H         22.79332         6.08515        -2.03233
H         23.06059         8.08686        -1.34374
H         23.26754        10.32497        -0.46666
H         23.33676        12.32226        -0.02448
H         23.27605        14.70850         0.42025
H         23.30949        16.70327         0.55821
H         21.00488        20.33067         0.95359
H         23.17011        19.12512         0.87776
