         667
 CSIRO Nanostructure Databank - Neutral Graphene Oxide Data Set
C          5.97089        31.83434         1.69782
C          5.95256        33.14612         1.37545
C          8.28890        27.38266         1.57787
C          8.27865        28.80139         1.42088
C          7.17204        29.56592         1.71746
C          8.29489        31.59848         0.80845
C          7.26633        31.06772         1.78692
C          8.27319        33.04047         0.42593
C          7.12444        33.86963         0.88328
C          8.27773        35.91366         0.09959
C          7.16415        35.22766         0.79371
C          8.42292        37.37490         0.16207
C         10.72088        23.09654         1.19455
C         10.68783        24.47893         1.43921
C          9.48206        25.22619         1.50679
C         10.75506        27.34779         1.35214
C          9.48211        26.63851         1.47246
C         10.78746        28.71862         1.09684
C          9.49755        29.40397         0.74005
C         10.77809        31.56539         0.57330
C          9.59028        30.90144         0.80644
C         10.78283        33.00543         0.30093
C          9.58392        33.68160         0.19063
C         10.82569        35.80224        -0.46369
C          9.53304        35.09577        -0.20045
C         10.80028        37.29912        -0.62304
C          9.56854        38.04750        -0.22274
C         10.81223        40.20846        -0.15128
C          9.61378        39.48151        -0.15452
C         10.86632        41.61356        -0.08470
C         13.16976        18.90422        -0.04356
C         13.15751        20.40930        -0.18360
C         11.91656        21.09216         0.32140
C         13.16792        23.12490         0.95335
C         11.94333        22.40888         0.82956
C         13.16444        24.36418         1.80911
C         11.94006        25.20892         1.54405
C         13.28554        27.28139         1.23187
C         11.97105        26.58130         1.50235
C         13.24614        28.79159         1.53340
C         12.01012        29.47239         0.98511
C         13.32169        31.54459         0.38906
C         12.02247        30.82679         0.68502
C         13.27309        33.05061         0.48312
C         12.05970        33.73290         0.21164
C         13.30408        35.86941         0.00871
C         12.08598        35.11641        -0.08661
C         13.34786        37.27371        -0.26311
C         12.11855        38.06547        -0.74662
C         13.31432        40.21289        -0.34570
C         12.08403        39.40703         0.00994
C         13.33460        41.65822        -0.10365
C         12.09351        42.36213        -0.02989
C         13.37247        44.48346        -0.06167
C         12.14031        43.77284         0.01040
C         13.41079        45.89964        -0.06643
C         15.66517        14.69118        -0.72485
C         15.65970        16.08328        -0.48735
C         14.44182        16.78519        -0.23905
C         15.64715        18.92323         0.12521
C         14.36422        18.19256        -0.04500
C         15.68111        20.38635         0.09396
C         14.39271        21.05069         0.47561
C         15.73735        23.14842         0.76152
C         14.41213        22.57339         0.30481
C         15.76119        24.50208         1.34852
C         14.49376        25.12542         1.81180
C         15.75696        27.39282         2.11127
C         14.47456        26.63085         1.92346
C         15.74243        28.93869         2.01047
C         14.58533        29.43363         1.10776
C         15.70973        31.65937         1.15485
C         14.52877        30.93832         1.05254
C         15.69284        33.08240         0.98417
C         14.48842        33.77320         0.65451
C         15.67894        35.96829         0.67159
C         14.49436        35.20834         0.45863
C         15.72021        37.34305         0.41129
C         14.54689        37.98026        -0.06610
C         15.84215        40.19619        -0.09725
C         14.60631        39.44035        -0.32239
C         15.80116        41.58660        -0.20744
C         14.57135        42.33362        -0.16359
C         15.86162        44.45377        -0.28195
C         14.60805        43.75633        -0.15723
C         15.88077        45.88555        -0.26410
C         14.62990        46.63088        -0.13736
C         15.93911        48.77231         0.01095
C         14.63876        48.02808        -0.08168
C         15.89310        50.21462        -0.40118
C         18.17424        10.48945        -1.49077
C         18.10466        11.86807        -1.09930
C         16.89475        12.57484        -1.08766
C         18.12852        14.69064        -0.89221
C         16.87782        13.98126        -0.89103
C         18.13151        16.11728        -0.79896
C         16.91928        16.77846        -0.54700
C         18.10875        19.02324        -0.52516
C         16.93840        18.19151        -0.14657
C         18.12225        20.42169        -0.09663
C         16.90776        21.08320         0.14039
C         18.20303        23.20265         0.65868
C         16.91610        22.50934         0.49304
C         18.22478        24.58306         0.97203
C         16.94374        25.39903         1.02763
C         18.27614        27.42925         1.55767
C         17.08384        26.60374         2.01630
C         18.25226        28.84961         1.49900
C         17.02536        29.58128         1.54523
C         18.22369        31.69482         1.24541
C         16.99058        30.95870         1.34276
C         18.21899        33.11976         1.28364
C         16.91747        33.82784         1.32821
C         18.18706        36.06528         1.14135
C         16.89764        35.33213         1.21440
C         18.23618        37.41657         0.92349
C         16.91659        38.16489         0.88608
C         18.27469        40.16569         0.20706
C         17.04712        39.50651         0.21470
C         18.35722        41.49384        -0.41434
C         17.05026        42.28548        -0.50255
C         18.33229        44.41854        -0.61685
C         17.06950        43.75019        -0.48307
C         18.31969        45.87654        -0.72218
C         17.09409        46.55722        -0.51402
C         18.28431        48.75943        -1.07961
C         17.02609        48.01761        -0.72241
C         18.32301        50.21855        -0.91581
C         17.06884        50.91657        -0.71646
C         18.29259        53.04942        -0.96963
C         17.08235        52.33358        -0.81812
C         18.29870        54.46400        -1.04873
C         20.80086         6.53112        -2.71516
C         20.72701         7.88235        -2.34599
C         19.47447         8.52174        -2.16877
C         20.62108        10.31942        -0.89473
C         19.38341         9.80586        -1.59921
C         20.56441        11.81309        -0.56260
C         19.32855        12.57895        -0.85422
C         20.67968        14.69097        -1.03221
C         19.35456        13.97027        -0.86387
C         20.62261        16.17974        -0.79424
C         19.40808        16.83024        -0.80325
C         20.66632        19.02610        -0.62530
C         19.39285        18.30661        -0.84853
C         20.63759        20.32375        -0.17534
C         19.39751        21.18670        -0.29110
C         20.64566        23.16519         0.68713
C         19.42093        22.50790         0.45156
C         20.65311        24.54983         0.94276
C         19.44588        25.27419         1.06603
C         20.67004        27.45691         1.06991
C         19.45936        26.73333         1.25660
C         20.67884        28.84759         1.13593
C         19.46647        29.56675         1.27890
C         20.69344        31.73535         1.26186
C         19.45872        31.00198         1.23386
C         20.67372        33.15481         1.38795
C         19.42106        33.83271         1.37451
C         20.69645        36.05438         1.56155
C         19.39600        35.30651         1.53564
C         20.72649        37.51453         1.31573
C         19.47878        38.19576         1.02947
C         20.54436        40.53449         1.26785
C         19.45370        39.57572         0.77227
C         20.87080        41.70757         0.29474
C         19.70307        42.19432        -0.58499
C         20.78852        44.53193        -0.45283
C         19.53975        43.70987        -0.59559
C         20.75347        45.78251        -1.33174
C         19.51658        46.60402        -1.02155
C         20.75253        48.74481        -1.33452
C         19.54034        47.99860        -1.15029
C         20.76983        50.15294        -1.28746
C         19.53483        50.89952        -1.06611
C         20.76133        53.06761        -1.11180
C         19.54227        52.33570        -1.02758
C         20.74464        54.46305        -1.21904
C         19.50603        55.18770        -1.18454
C         20.73412        57.35943        -1.20276
C         19.51652        56.60351        -1.26496
C         20.70592        58.75631        -1.28347
C         23.36586         3.81573        -3.06134
C         22.12039         4.47368        -3.01862
C         23.26640         6.63942        -2.73546
C         22.04590         5.86493        -2.82416
C         23.20868         8.01009        -2.51207
C         21.96047         8.64161        -2.16179
C         23.11735        10.65001        -1.27650
C         21.91563         9.90693        -1.57305
C         23.10082        11.85444        -0.61325
C         21.83584        12.55769        -0.30891
C         23.14236        14.78134        -0.70691
C         21.85291        14.09939        -0.24601
C         23.16040        16.15313        -0.84019
C         21.89217        16.90046        -0.80207
C         23.13252        19.07483        -1.20110
C         21.90700        18.28158        -0.78800
C         23.10700        20.43638        -0.49870
C         21.91684        20.95097         0.21831
C         23.19963        23.15920         0.51316
C         21.93007        22.40773         0.63387
C         23.24051        24.54862         0.95383
C         21.92934        25.28744         1.09859
C         23.20129        27.44427         1.08198
C         21.93478        26.73682         0.65621
C         23.17440        28.79853         1.27976
C         21.95988        29.58573         0.84524
C         23.12784        31.73583         1.50304
C         21.93482        31.03539         1.27265
C         23.15865        33.15654         1.54099
C         21.91859        33.88755         1.49210
C         23.22229        36.00286         1.76158
C         21.94155        35.28961         1.51690
C         23.19200        37.52475         1.68230
C         21.92421        38.21267         1.52877
C         23.76839        41.40252         1.75173
C         21.60759        39.61455         1.97817
C         23.35957        42.04008         0.59729
C         22.02412        42.45434         0.19429
C         23.30843        44.56481        -0.38060
C         22.06629        43.70769        -0.69189
C         23.25911        45.91230        -1.08308
C         22.05726        46.55306        -1.26663
C         23.32219        48.78107        -1.38097
C         22.00353        47.99698        -1.56776
C         23.22753        50.20894        -1.09626
C         22.02502        50.87788        -1.25750
C         23.21679        53.03722        -1.19154
C         22.03435        52.34756        -1.17503
C         23.21669        54.49705        -0.82142
C         22.03590        55.20550        -1.49626
C         23.21940        57.34778        -0.81406
C         21.97190        56.64952        -1.08065
C         23.21819        58.88344        -0.97218
C         21.92605        59.63692        -1.27035
C         23.24445        60.78433        -3.06020
C         22.04423        60.45752        -2.53602
C         24.54784         4.51803        -2.93901
C         25.73547         6.64926        -2.71696
C         24.55217         5.95102        -2.81114
C         25.79203         8.14832        -2.81852
C         24.44936         8.82110        -2.51837
C         25.65600        10.71340        -1.23517
C         24.40943        10.14379        -1.80596
C         25.61633        11.86086        -0.50686
C         24.34044        12.60306        -0.21222
C         25.66266        14.72908        -0.59761
C         24.39338        13.97335        -0.94189
C         25.66058        16.15511        -0.70221
C         24.43367        16.89290        -0.89993
C         25.74338        18.96288        -1.03866
C         24.46743        18.30233        -1.03023
C         25.91084        20.38121        -1.23781
C         24.05352        21.36098        -0.81391
C         25.62243        23.24167        -0.12757
C         24.29764        22.61705        -0.14043
C         25.64966        24.62048         0.32625
C         24.47103        25.30098         0.70901
C         25.66279        27.40422         1.05467
C         24.46280        26.71277         1.01438
C         25.71618        28.80123         1.48434
C         24.38433        29.50928         1.70630
C         25.69535        31.74534         1.66143
C         24.37162        31.00172         1.78833
C         25.61367        33.17281         1.32999
C         24.41804        33.84689         1.42020
C         25.71391        36.02633         1.36846
C         24.41565        35.31973         0.99952
C         25.71016        37.45347         1.50363
C         24.45963        38.11155         1.82256
C         25.73334        40.40306         0.57892
C         24.84650        40.42814         1.60851
C         25.73115        41.58119        -0.37049
C         24.51581        42.46068        -0.21152
C         25.81692        44.39050        -1.01384
C         24.53793        43.73926        -0.66453
C         25.81295        45.89686        -1.15215
C         24.52047        46.63682        -1.11659
C         25.76382        48.71762        -0.68482
C         24.53151        48.00700        -1.07695
C         25.73470        50.21807        -0.55893
C         24.43814        51.01268        -0.63014
C         25.78998        53.07717        -1.31094
C         24.49508        52.27985        -1.50141
C         25.74775        54.53635        -1.07843
C         24.52897        55.22691        -1.02631
C         25.74385        57.35099        -0.88785
C         24.51750        56.63636        -0.92417
C         25.75052        58.86929        -0.82460
C         24.49861        59.43790        -1.45094
C         24.49310        60.32818        -2.47854
C         26.93944         8.74637        -2.04019
C         28.12471        10.58674        -0.95095
C         26.91022         9.97404        -1.42557
C         28.13851        11.86721        -0.42749
C         26.85819        12.54473        -0.00235
C         28.08659        14.71639        -0.19911
C         26.84407        14.03515        -0.30956
C         28.12268        16.13201        -0.32995
C         26.90519        16.84442        -0.55786
C         28.20276        18.94467        -0.63963
C         26.94928        18.25696        -0.71771
C         28.29062        20.44610        -0.83216
C         26.95150        21.14642        -0.72742
C         28.11041        23.23556        -0.07725
C         26.85491        22.55112        -0.37032
C         28.09648        24.65036         0.20622
C         26.88924        25.31738         0.40582
C         28.12264        27.50825         0.56809
C         26.96160        26.67102         1.05243
C         28.11574        28.90576         0.72683
C         26.92802        29.59748         1.17829
C         28.10184        31.73809         1.02200
C         26.89990        30.98193         1.26031
C         28.10856        33.13505         1.09664
C         26.84265        33.89069         0.80925
C         28.15293        36.02009         1.33340
C         26.90006        35.33159         1.25263
C         28.14364        37.44843         1.18035
C         26.90723        38.15793         1.20554
C         28.19306        40.23114         0.42213
C         26.88355        39.44022         0.38389
C         28.22067        41.62080         0.06088
C         27.04404        42.33648        -0.25801
C         28.24828        44.47471        -0.49840
C         27.06807        43.72077        -0.58075
C         28.25129        45.88798        -0.65890
C         27.07803        46.61814        -0.90216
C         28.23212        48.79090        -0.57901
C         27.06927        48.04562        -0.80619
C         28.19879        50.22070        -0.42328
C         27.02443        50.91654        -0.63808
C         28.27552        53.12425        -0.55203
C         27.06187        52.36119        -0.93904
C         28.21134        54.53946        -0.69490
C         26.98939        55.23385        -0.90988
C         26.94866        56.65691        -0.85945
C         29.34113        12.58427        -0.20870
C         30.54703        14.71119         0.00489
C         29.32222        13.98206        -0.06499
C         30.58735        16.08703        -0.11182
C         29.37301        16.82936        -0.28779
C         30.72146        18.97219        -0.59922
C         29.39478        18.24414        -0.44403
C         30.67472        20.40197        -0.12799
C         29.33683        21.05035         0.08478
C         30.58122        23.22423         0.20288
C         29.34887        22.55514         0.00017
C         30.60058        24.68477         0.55734
C         29.32122        25.40178         0.27583
C         30.53121        27.54034        -0.21840
C         29.31233        26.79661         0.26626
C         30.57510        28.98404         0.22088
C         29.33210        29.66724         0.52575
C         30.49633        31.92397         0.42975
C         29.31635        31.04302         0.73264
C         30.63490        33.00407         1.56590
C         29.29444        33.82733         1.72177
C         30.59590        36.00612         1.50097
C         29.36913        35.30822         1.42143
C         30.62622        37.44682         1.29136
C         29.38923        38.13682         0.99732
C         30.66521        40.20003         0.36550
C         29.38442        39.51838         0.61942
C         30.67981        41.65839         0.16932
C         29.49816        42.31778        -0.02403
C         30.65423        44.46298         0.45460
C         29.58074        43.77725        -0.42992
C         30.62892        46.04644         0.38446
C         29.54252        46.60083        -0.54693
C         30.75690        48.85975        -0.18182
C         29.53361        48.11062        -0.58352
C         30.71272        50.22751        -0.05560
C         29.40404        50.95719         0.13047
C         29.41824        52.43100        -0.19404
C         31.94011        16.75284        -0.22164
C         33.04842        18.93027         0.28318
C         31.92118        18.24672        -0.04150
C         33.09946        20.38542         0.26803
C         31.83522        21.09362         0.12935
C         33.05350        23.25586         0.35104
C         31.80558        22.53637         0.28232
C         33.08539        24.67828         0.22840
C         31.84805        25.42484         0.14654
C         33.06121        27.55423        -0.02932
C         31.83258        26.79663        -0.02286
C         33.04077        28.92812         0.14894
C         31.78429        29.65055         0.23546
C         33.08140        31.84496         0.57811
C         31.80474        31.14256         0.26833
C         33.08130        33.23728         1.06935
C         31.85923        33.88060         1.32776
C         33.06291        35.97133         1.91477
C         31.81804        35.27347         1.58622
C         33.07993        37.51496         1.83764
C         31.84588        38.14535         1.34862
C         33.09738        40.36487         1.15761
C         31.93581        39.50140         0.79030
C         33.17945        41.72341         0.64149
C         32.01410        42.33667        -0.11142
C         33.18470        44.54236         0.29447
C         31.97464        43.82247         0.15740
C         33.15884        45.97560         0.22166
C         31.97119        46.70296         0.07407
C         31.97369        48.09525        -0.10782
C         34.26716        21.09328         0.43993
C         35.50474        23.24407         0.33756
C         34.28460        22.53567         0.39668
C         35.53013        24.63599         0.16244
C         34.31954        25.35146         0.10623
C         35.60165        27.51466         0.18847
C         34.35273        26.80928        -0.28852
C         35.58715        28.90728         0.38476
C         34.28465        29.59555         0.70852
C         35.52204        31.79510         0.64158
C         34.34641        31.09533         0.61863
C         35.54491        33.21832         0.92025
C         34.33881        33.87849         1.22996
C         35.65820        36.02029         1.65630
C         34.36092        35.23807         1.79342
C         35.59123        37.49736         1.54904
C         34.39839        38.17915         1.62031
C         35.66087        40.37417         1.32291
C         34.40015        39.65303         1.56919
C         35.61189        41.75528         1.07481
C         34.39512        42.43837         0.76001
C         34.40354        43.83612         0.46552
C         36.82756        25.34704        -0.16303
C         38.02495        27.51630         0.38589
C         36.82746        26.82086         0.17493
C         38.03301        28.92728         0.48105
C         36.79568        29.61745         0.46696
C         38.04764        31.82313         0.63922
C         36.79282        31.10350         0.22926
C         38.03901        33.19903         0.71630
C         36.80123        33.93298         0.91565
C         38.09369        36.05567         1.09749
C         36.84424        35.31210         1.14450
C         38.05110        37.48321         1.25142
C         36.85526        38.20867         1.36922
C         36.85500        39.62579         1.29061
C         39.26127        29.68314         0.63725
C         40.49683        31.80711         1.03111
C         39.27814        31.06085         0.72875
C         40.52117        33.15675         1.00906
C         39.33469        33.94590         0.50441
C         39.29100        35.38499         0.92401
O         31.56999        39.54629        -0.63761
O         24.59356        39.35441         2.47141
O         32.56342        31.71328        -0.85841
O         33.50478        40.24857         2.55885
O         30.27441        46.52836         1.65846
O          7.84534        31.97744        -0.52774
O         22.01773        21.30472         1.63186
O         17.25873        48.38203        -2.10529
O         26.74629        52.68361        -2.36290
O         30.91030        32.33019         2.74998
O         25.65311        49.35813         0.65142
O         25.11559        28.93351         2.82711
O         29.88901        47.28851        -1.77289
O         22.65686        24.91605         2.28497
O         19.94916        35.74776         2.83034
O         18.54023        18.84147        -1.94092
O         32.95739        36.80292         3.10300
O         16.49720        18.39011         1.23473
O         21.05411        12.02836         0.82148
O         17.65382        41.62205        -1.69292
O         23.21922        58.29990         0.34351
O         35.22612        35.43998         2.94573
O         24.88772        21.06985        -1.90060
O         10.72906        36.41841        -1.79751
O         21.79967        39.81802         3.17332
O         25.09172        31.46179         2.96579
O         25.89403        45.00737        -2.33951
O         24.32700        35.34184        -0.37373
O         16.72430        34.68804         2.52606
O         14.89625        27.03086         3.25247
O          8.53349        35.34067        -1.23438
O         13.99345        39.86182        -1.58373
O         15.40749        24.50894         2.78210
O         24.35281        10.07693        -3.28334
O         22.77286        48.43819        -2.71530
O         26.85138        12.46819         1.47623
H         27.04378        11.53853         1.72344
O         26.83629        38.87092        -0.95773
H         26.48302        39.55711        -1.57514
O         32.29623        42.12145        -1.53489
H         32.16242        41.15624        -1.69438
O         12.25705        38.35339        -2.14625
H         11.91238        37.57150        -2.63633
O         30.43663        44.10702         1.83056
H         30.31104        45.00384         2.28790
O         23.39541        44.89155         1.03081
H         22.52251        45.27363         1.29772
O         14.93267        29.04197        -0.23929
H         14.38927        29.58974        -0.85823
O         22.97335        54.53722         0.61484
H         22.96828        55.47712         0.89693
O         30.12712        43.85882        -1.77368
H         29.48780        43.46114        -2.40074
O         30.34504        27.61258        -1.68091
H         31.14605        28.03666        -2.05792
O         36.80079        31.22334        -1.25006
H         37.46657        30.58872        -1.59131
O         39.50640        34.00321        -0.96854
H         39.29194        33.11112        -1.31767
O         32.42340        16.51947        -1.57202
H         32.27960        15.57355        -1.78556
O         21.69099        14.47917         1.13277
H         22.36510        13.98016         1.64767
O         16.36352        48.74636         1.43510
H         15.65416        49.17128         1.96216
O         29.19546        50.90505         1.59680
H         29.17093        49.95953         1.86228
O         15.60196        29.47102         3.33789
H         14.93567        28.91600         3.80777
O         23.57040        35.71039         3.15571
H         22.79482        35.92921         3.71581
O         26.66886        33.93173        -0.64410
H         25.84192        34.48120        -0.80251
O         22.95901        19.28948        -2.63229
H         23.64660        19.94169        -2.90372
O         24.40785        51.88143        -2.88358
H         25.30016        52.00753        -3.28495
O         20.77668        45.00587         0.93444
H         20.60766        44.23126         1.51434
O         30.19905        32.61579        -0.79215
H         31.03573        32.63798        -1.31860
O         13.09640        28.94571         2.96778
H         12.27883        28.47695         3.23861
O         27.24773        26.40177         2.48678
H         26.90127        27.15873         3.00897
O         23.20696        41.61131         2.95309
H         23.56646        40.96412         3.59727
O         26.93024        59.39338        -1.42663
H         26.99871        59.04190        -2.33752
O         21.74788        60.58832        -0.17152
H         21.88013        60.07887         0.65811
O         21.03171        14.51167        -2.44079
H         20.35841        14.97354        -2.98382
O         13.53471        31.26881        -1.07796
H         14.18065        31.93123        -1.40736
O         20.11807        41.81325        -1.94594
H         19.30421        41.86510        -2.50411
O         25.65774        41.08593        -1.75174
H         25.46927        41.85300        -2.33491
O         28.74761        20.71120        -2.18691
H         28.27702        20.11350        -2.80335
O         14.33502        22.97954        -1.09259
H         13.83472        22.28057        -1.58906
O         12.17276        39.06737         1.42458
H         12.02949        39.88361         1.94805
O         24.44382        13.65752        -2.36173
H         24.24307        14.47336        -2.86648
O         13.24832        20.65169        -1.65170
H         12.41373        20.32751        -2.05201
O         26.11024         8.42507        -4.22173
H         25.72940         9.31595        -4.40967
O         30.67091        24.65861         2.04382
H         30.37491        25.53462         2.37434
O         24.18342        51.47417         0.71548
H         24.41246        50.73373         1.32240
O         21.93625        26.70759        -0.80299
H         21.98264        27.64869        -1.10113
O         20.59383        45.34431        -2.70524
H         20.79182        46.10169        -3.29501
O         19.38478        21.58252        -1.72031
H         19.17542        20.76154        -2.23042
O         13.50330        27.03202        -0.17903
H         12.77887        27.46072        -0.68160
O          7.83899        31.38074         3.10739
H          7.23858        31.01168         3.78885
O         28.93364        20.72053         1.45341
H         29.48345        21.25293         2.06703
O         22.27568        55.16090        -2.93828
H         21.46995        55.49248        -3.38732
O         14.27237        20.83996         1.90969
H         14.43576        19.89085         2.09882
O          9.29405        29.13782        -0.69824
H          8.64726        29.80048        -1.02947
O         34.48279        26.79753        -1.75732
H         35.33301        26.33615        -1.96341
O         16.61737        38.47720         2.29090
H         16.67461        37.63988         2.80089
O         22.23352        43.36984        -2.07037
H         21.46774        42.80652        -2.35006
O         12.96601        23.85350         3.16532
H         13.85418        23.56747         3.48576
O         28.92743        33.74259         3.12464
H         29.59957        33.08813         3.49873
O         30.96854        19.00223        -2.05231
H         31.47684        18.18573        -2.27074
O         22.06873        29.62872        -0.63604
H         21.31982        30.16826        -0.97084
O         34.11355        29.35700         2.16277
H         34.79179        29.88035         2.64121
O         20.62955         9.58507         0.36760
H         20.94821        10.22397         1.05240
O         19.91946        41.25488         2.36915
H         20.42017        40.99818         3.18553
O         24.21347        12.88351         1.20609
H         25.12608        12.89640         1.59630
O         16.73127        25.98232        -0.27667
H         16.58831        25.26210        -0.92640
O         17.43873        26.12892         3.31859
H         16.60753        25.81859         3.74970
O         36.99459        25.26316        -1.60276
H         36.89187        24.32409        -1.86391
H          5.04596        31.33846         2.03156
H          5.00754        33.70820         1.43655
H          7.35728        26.86705         1.85753
H          6.26407        29.07531         2.10609
H          6.32727        35.83477         1.17217
H          7.57255        37.95657         0.55076
H          9.77021        22.54967         1.10020
H          8.51936        24.69334         1.52090
H          8.65810        40.02096        -0.06178
H          9.92024        42.17588        -0.11819
H         12.22427        18.36220        -0.20659
H         10.95192        20.56709         0.24657
H         11.20092        44.34418         0.04926
H         12.46480        46.45760         0.00523
H         14.71556        14.13603        -0.71800
H         13.50216        16.21396        -0.28404
H         13.68823        48.57610         0.00819
H         14.96128        50.78132        -0.24719
H         17.25129        10.00376        -1.84478
H         15.94575        12.03530        -1.22163
H         16.13696        52.88913        -0.72878
H         17.34489        55.00944        -0.99862
H         19.87173         5.95485        -2.84006
H         18.55873         8.00467        -2.49503
H         18.56031        57.14533        -1.30579
H         19.73339        59.26359        -1.36894
H         23.39084         2.72415        -3.18828
H         21.19213         3.89154        -3.10887
H         23.29778        61.42173        -3.95491
H         21.11655        60.84331        -2.98293
H         25.51205         3.99070        -2.97326
H         26.69036         6.10286        -2.75295
H         25.76896        59.17857         0.25644
H         25.44176        60.71211        -2.87988
H         27.91195         8.23981        -2.14552
H         29.07887        10.07602        -1.15272
H         29.12227        55.13069        -0.51623
H         27.88933        57.22076        -0.77552
H         30.30690        12.06770        -0.31840
H         31.48845        14.14743         0.10222
H         31.63602        50.77671         0.18988
H         30.33608        52.99250         0.04074
H         32.66102        16.27775         0.50428
H         33.96487        18.38192         0.55420
H         34.11971        46.51366         0.26628
H         32.93699        48.62651        -0.18574
H         35.22173        20.55890         0.56144
H         36.45251        22.68386         0.36586
H         36.55665        42.31147         0.98102
H         35.34987        44.39356         0.51888
H         37.69603        24.82773         0.33277
H         38.97892        26.96805         0.40275
H         38.99794        38.03895         1.17580
H         37.81001        40.14813         1.13026
H         40.20481        29.12426         0.73112
H         41.39616        31.23630         1.30940
H         41.45153        33.69856         1.23749
H         40.23605        35.94978         0.93028
