         276
 CSIRO Nanostructure Databank - Neutral Graphene Oxide Data Set
C        -10.39687         0.94852        -2.33686
C         -9.34115         1.78644        -1.71456
C         -8.05051         1.06004        -1.39967
C         -7.26441         1.59614        -0.24160
C         -6.18201         0.78566         0.37589
C         -4.98562         1.51656         0.92198
C         -3.92002         0.70462         1.60163
C         -2.69220         1.43092         2.05684
C         -1.38792         0.67171         2.08133
C         -0.13244         1.40308         1.70261
C          1.07284         0.60560         1.21289
C          2.01910         1.26640         0.23574
C          3.14982         0.49742        -0.38159
C          4.32187         1.22403        -0.99974
C          5.50420         0.43929        -1.50394
C          6.84259         1.16898        -1.51908
C          8.10709         0.47084        -1.87381
C          9.50465         1.09413        -1.66976
C         10.27434         0.24094        -0.69103
C         -9.63065         3.03389        -0.95626
C         -8.62940         3.72976        -0.33503
C         -7.22209         3.13218        -0.31368
C         -6.35183         3.70609         0.82536
C         -5.04011         3.00608         1.08592
C         -3.98790         3.72893         1.89861
C         -2.69341         2.96935         2.12040
C         -1.38222         3.68633         1.87992
C         -0.29594         2.83973         1.23520
C          0.82787         3.51648         0.50196
C          2.12071         2.75887         0.37810
C          3.37766         3.44743        -0.01296
C          4.45857         2.72006        -0.75062
C          5.81385         3.38631        -0.76422
C          6.87853         2.34863        -0.57041
C          8.74135         3.57800        -1.46167
C          9.60705         2.58822        -1.33110
C         -8.72946         5.14364        -0.00269
C         -7.69621         5.86534         0.51700
C         -6.51138         5.16619         1.09702
C         -5.31046         5.96814         1.53042
C         -4.00617         5.25203         1.85810
C         -2.67864         5.98259         1.77572
C         -1.38871         5.17957         1.65359
C         -0.30293         5.83661         0.82830
C          0.84198         5.02368         0.30721
C          2.14807         5.71331        -0.01286
C          3.40609         4.93530        -0.18490
C          4.74964         5.58173         0.02844
C          5.98497         4.78516        -0.23600
C          7.30847         5.55976        -0.65292
C          8.11782         4.73451        -1.66330
C         -7.76782         7.38101         0.62940
C         -6.39789         7.98934         0.26142
C         -5.27718         7.42270         1.14835
C         -3.95962         8.14558         1.05186
C         -2.68010         7.42899         1.32297
C         -1.49637         7.99741         0.50999
C         -0.18574         7.33851         1.06953
C          0.99785         8.02034         0.41609
C          2.21812         7.21670         0.11787
C          3.54418         7.88361         0.32148
C          4.79381         7.08692         0.12821
C          6.04280         7.84124        -0.46760
C          6.81878         6.83521        -1.26821
C         -6.34937         9.50435         0.35044
C         -5.17867        10.15713         0.29277
C         -3.88619         9.38510         0.13254
C         -2.61797        10.16989         0.44487
C         -1.45053         9.52211         0.63446
C         -0.15619        10.22551         1.01892
C          1.12001         9.49444         0.61135
C          2.28456        10.11528         0.32474
C          3.63068         9.41909         0.17305
C          4.42754         9.68959        -1.09514
C          5.54440         8.98786        -1.34368
C        -10.20796        -0.31865        -2.77545
C         -8.91134        -1.04618        -2.72513
C         -7.81996        -0.33423        -1.87844
C         -6.79425        -1.18695        -1.18855
C         -5.92893        -0.62080        -0.11355
C         -5.12245        -1.50837         0.80881
C         -3.99849        -0.80726         1.50931
C         -2.78890        -1.55916         2.01406
C         -1.48790        -0.81297         1.77144
C         -0.28848        -1.59306         1.30820
C          1.04330        -0.89044         1.17867
C          2.13968        -1.63896         0.45583
C          3.45146        -0.89094         0.19548
C          4.41168        -1.73622        -0.65805
C          5.48388        -1.08286        -1.48648
C          6.75550        -1.81525        -1.90232
C          8.05227        -1.04850        -2.04631
C          9.39422        -1.78106        -1.86700
C         10.22735        -1.09067        -0.80237
C         -8.78697        -2.49174        -2.82657
C         -7.39953        -3.10636        -2.81862
C         -6.84277        -2.66808        -1.40673
C         -5.84610        -3.52674        -0.65061
C         -5.21423        -3.05071         0.70980
C         -3.90743        -3.80936         1.29950
C         -2.76283        -3.05774         1.99053
C         -1.34902        -3.71357         2.27928
C         -0.30724        -3.14629         1.28462
C          1.10120        -3.72125         1.53145
C          2.20218        -3.11156         0.68292
C          3.58605        -3.75548         0.77884
C          4.66993        -3.11989        -0.11803
C          5.79130        -3.92049        -0.69826
C          6.72776        -3.38661        -1.81082
C          8.11871        -3.96897        -1.48467
C          9.24414        -3.24278        -1.51019
C         -7.35825        -4.62220        -2.90737
C         -6.26017        -5.28627        -2.44696
C         -5.24258        -4.40840        -1.73769
C         -4.56556        -6.02204         0.07864
C         -3.65221        -5.27027         0.98282
C         -2.32715        -5.95909         1.36607
C         -1.29374        -5.25206         2.18132
C          0.06127        -5.91953         2.57860
C          1.27485        -5.10702         2.07590
C          2.43047        -5.91030         1.52168
C          3.45661        -5.27205         0.64165
C          4.62763        -6.07544         0.14243
C          5.76116        -5.42096        -0.58052
C          7.04477        -6.17551        -0.69913
C          8.21499        -5.48679        -1.37858
C         -5.99698        -6.70251        -2.67867
C         -4.91094        -7.32909        -2.11464
C         -4.09582        -6.51995        -1.18226
C         -1.68312        -7.44608        -0.79945
C         -2.06108        -7.31036         0.71118
C         -0.87811        -8.07737         1.30416
C          0.12214        -7.41356         2.18149
C          1.45323        -8.12588         2.30366
C          2.67243        -7.28596         2.07197
C          3.98492        -7.96356         1.80602
C          4.91828        -7.39350         0.79738
C          5.89362        -8.29046         0.04755
C          7.11580        -7.48354        -0.36112
C         -4.39698        -8.63632        -2.47866
C         -3.23528        -9.25022        -2.08790
C         -2.13936        -8.84756        -1.20478
C         -1.41441        -9.76755        -0.50088
C         -0.33973        -9.27839         0.46221
C          0.33222       -10.30995         1.40938
C          1.56937        -9.58658         1.96611
C          2.79235       -10.15477         1.86615
C          4.07503        -9.42833         2.24945
C          5.33173       -10.08352         1.71998
C          6.17770        -9.55222         0.82751
O         -4.42981         2.41361        -0.10087
O         -7.46824         0.97071         1.05115
O          5.16140        -7.18937         2.22455
O          4.26630        -1.62562        -2.08325
O          2.25036        -5.84536         0.05355
O          4.33756         7.44144         1.46416
O          3.15412         3.06308         1.38006
O         -3.67642         0.95651         3.01710
O          1.63295        -0.18202         2.31486
O          4.66446        -6.06575        -1.31934
O          1.37438         7.74182        -0.96206
O         -7.29061        -3.62383        -0.43846
O          1.52857        -3.94209         2.90564
O         -0.95549        -8.24285         2.74421
O         -1.63748         7.61274        -0.80833
O         -3.12521        -2.31578         3.19918
O          5.54485         4.97248         1.11471
O          7.27536        -1.42491        -3.20733
O         -2.34352        -6.00677         2.83017
O          4.51741         0.96181        -2.42014
O         -0.65264        -6.92644        -1.23657
O         -3.23683         8.33666         2.30286
O         -6.97741         4.11067         2.04884
O         -0.45574         1.13336         3.08985
O          1.74862        -2.57706        -0.58609
O          7.38191         1.27058        -2.86494
O         -8.11043         1.96046        -2.51546
O          6.37663        -3.93084        -3.02296
O         -3.56765         3.32795         3.22108
O         -4.38817        -4.87442         2.17063
O          2.67992         5.36565        -1.35473
O         -0.25804         5.44878        -0.55579
O         -4.14308        -4.11825        -2.17192
O         -5.24738        -1.15139         2.20618
O          7.45191         2.26809         0.51111
O         -1.21276        -1.02181         0.33322
O         -5.65619         7.02210         2.49210
O          5.98193        -3.21290         0.56563
O         -0.26691         2.88087        -0.22078
O         -3.35487         5.79887         3.03229
O         -7.75111        -0.35745        -3.32247
O          2.20852        -7.56484         3.42798
O         -2.93846        -6.16460        -1.55132
O         -5.43248        -0.68265        -1.47908
O         -0.91265         4.59522         2.90422
O         -6.63389         3.48471        -1.51961
O          1.90234         0.69393        -1.09740
O          4.98379         3.36692        -1.94281
O          0.80267        -8.82657        -0.30413
H          0.52810        -8.15315        -0.97771
O          5.24633        -8.72063        -1.17724
H          4.99228        -7.90773        -1.67872
O          3.99171        -3.51711         2.14141
H          4.97435        -3.44392         2.16100
O          4.18802        -9.45947         3.68909
H          3.50773        -8.84359         4.05142
O         -0.93364        -3.31135         3.57830
H         -1.67388        -3.45838         4.20666
O         -6.14495         7.56609        -1.09157
H         -5.34457         8.05412        -1.42661
O         -5.80761        -6.21255         0.51235
H         -5.90927        -5.71803         1.37028
O          4.14360        -0.68090         1.44057
H          3.48199        -0.45815         2.14227
O          6.79340         8.37413         0.63068
H          7.31384         7.63221         1.02051
O         -8.17817         7.77165         1.93811
H         -7.47321         7.49254         2.57125
O          4.40867         9.95191         1.26338
H          5.26183         9.45441         1.30609
O         -0.53245       -10.82150         2.40807
H         -0.77613       -10.08242         3.01254
O         -0.14737        10.29344         2.46632
H          0.66691        10.75860         2.75177
O         10.09992        -1.73047        -3.12212
H          9.45381        -1.96676        -3.82258
O          8.04412         5.82309         0.53997
H          8.19206         4.97806         1.01480
O         -6.22763        -3.40854         1.65653
H         -6.04951        -2.90416         2.48486
O         -6.55184        -2.62640        -3.85394
H         -6.67733        -1.64953        -3.94636
O         -0.10802         7.53211         2.47105
H         -0.18209         8.49949         2.69006
O         -0.75242        -3.59085         0.00104
H         -0.12948        -3.26159        -0.69089
O         10.15547         0.99061        -2.95279
H          9.50715         1.26452        -3.63672
O          9.44352        -5.87604        -0.77000
H          9.38276        -5.71950         0.19423
O          0.10686        -5.89029         4.00607
H          0.34349        -4.97333         4.27529
O         -3.82657         8.94226        -1.24766
H         -2.96364         8.43848        -1.36970
O         -3.27825        -8.06011         0.92234
H         -3.39339        -8.15227         1.89493
H         10.81156        -1.72383        -0.11722
H         10.89284         0.72420         0.07992
H         10.64353         2.88309        -1.07504
H          8.13199         5.13780        -2.69368
H          6.57383         6.77777        -2.34306
H          6.15608         9.23592        -2.22475
H          4.13541        10.51615        -1.76005
H          2.33586        11.21480         0.38223
H         -0.14595        11.27228         0.60851
H         -2.67318        11.26912         0.50375
H         -5.14247        11.25632         0.34304
H         -7.29581        10.05599         0.45547
H         -8.53587         7.76064        -0.08896
H         -9.63704         5.67461        -0.33118
H        -10.63763         3.46875        -1.04888
H        -11.40957         1.37674        -2.39042
H        -11.06854        -0.87377        -3.17825
H         -9.65046        -3.11796        -2.55353
H         -8.13946        -5.14872        -3.47721
H         -6.63228        -7.23190        -3.40612
H         -5.03879        -9.21283        -3.16481
H         -3.10735       -10.27563        -2.47713
H         -1.60519       -10.84804        -0.60226
H          0.68207       -11.17788         0.79698
H          2.86751       -11.20351         1.53836
H          5.59479       -11.03847         2.20091
H          7.08732       -10.10802         0.55041
H          8.06556        -8.01896        -0.52021
H          8.24341        -5.86430        -2.43783
H         10.19443        -3.77768        -1.33799
