         300
 CSIRO Nanostructure Databank - Neutral Graphene Oxide Data Set
C         30.55383        31.22829        -0.52277
C         30.81517        32.16204        -1.29935
C         31.07416        35.90715        -2.24907
C         30.73076        37.04457        -1.85246
C         30.71871        40.29085        -1.96790
C         30.55312        41.51308        -1.80374
C         32.57460        28.77050         1.30862
C         31.53469        29.28459         0.90332
C         32.69919        31.51708         0.66471
C         31.33781        30.69714         0.56571
C         32.93585        32.66575        -0.26610
C         32.05575        32.90404        -1.29922
C         33.18632        35.76351        -1.16098
C         32.22151        35.11040        -1.89398
C         33.01118        37.25469        -0.94129
C         31.93987        38.00439        -1.80219
C         33.08299        40.23373        -1.27219
C         31.64278        39.38395        -1.21998
C         32.95306        41.77746        -1.21446
C         31.62477        42.49209        -1.63136
C         32.56101        44.45138        -0.57031
C         31.60625        43.84254        -1.06252
C         35.30394        27.32505         1.07791
C         35.09562        28.57808         1.49847
C         33.84192        29.33714         1.84799
C         35.06217        31.61367         1.65316
C         33.97705        30.73129         1.01181
C         35.14964        32.98707         0.93675
C         34.26785        33.47750        -0.22944
C         35.17152        35.95472         0.42065
C         33.95804        35.03876        -0.02632
C         35.49109        37.33532        -0.26214
C         34.12794        38.07321        -0.32486
C         35.38541        40.33323        -0.18120
C         34.01652        39.61805        -0.17284
C         35.17263        41.82318         0.28188
C         34.17309        42.58151        -0.67249
C         35.07540        44.80284         0.25346
C         33.85900        44.00426        -0.06811
C         35.30703        46.25417         0.19859
C         37.57046        27.17245         0.55723
C         36.30060        26.67136         0.54419
C         37.70526        28.48511         1.30370
C         36.43424        29.27450         1.69220
C         37.73111        31.48638         1.51211
C         36.42316        30.79291         1.74789
C         37.86734        32.78473         1.90163
C         35.98786        33.86439         1.52471
C         37.64135        35.87002         1.09573
C         36.22929        35.28642         1.22123
C         37.53932        37.36466         1.56514
C         36.67972        38.13878         0.47919
C         37.57796        40.38470         1.01943
C         36.47949        39.65399         0.64827
C         37.69006        41.85812         0.73263
C         36.49408        42.58552         0.20869
C         37.72192        44.87634         0.32328
C         36.44394        44.10820         0.12755
C         37.76166        46.39142         0.29243
C         36.40108        46.82776         0.14428
C         39.88083        24.61813        -0.95733
C         38.90069        25.23763        -0.54306
C         40.08470        27.23877         0.04374
C         38.68275        26.70713        -0.33675
C         40.16604        28.65738         0.43399
C         39.01379        29.24016         1.14834
C         40.28334        31.47331         1.31999
C         39.00793        30.71151         1.43245
C         40.20641        32.97694         0.97751
C         39.05327        33.65255         1.77057
C         40.18925        35.92420         1.34577
C         38.89457        35.15473         1.65637
C         40.14559        37.42078         0.83442
C         38.75984        38.15661         1.03514
C         40.15645        40.37480         1.36441
C         38.78689        39.63848         1.58195
C         40.19656        41.87512         1.10828
C         38.91976        42.65694         1.08440
C         40.26770        44.90282         0.64134
C         38.95785        44.17150         0.79802
C         40.34154        46.41716         0.28676
C         38.93117        47.01182        -0.02744
C         40.08859        48.66988        -1.41630
C         39.16732        48.24801        -0.68663
C         42.49844        24.66641        -1.42719
C         41.12457        25.27839        -1.48281
C         42.54075        27.37473        -0.79544
C         41.30178        26.53928        -0.52142
C         42.57893        28.81962        -0.40607
C         41.55366        29.23899         0.67520
C         42.79351        31.55273         0.75944
C         41.56331        30.74659         1.00037
C         42.72981        33.04539         0.73496
C         41.55974        33.69012         1.00979
C         42.60247        35.94462         0.40577
C         41.49432        35.17747         1.14855
C         42.68100        37.41650         0.78042
C         41.46220        38.09467         1.41434
C         42.78508        40.47915         1.12866
C         41.47335        39.64767         1.33518
C         42.67096        41.69863         0.23531
C         41.40087        42.51751         0.44200
C         42.78552        44.69735         0.09561
C         41.45359        44.01755         0.29593
C         42.73284        46.08536        -0.52805
C         41.43160        46.78161        -0.72974
C         42.57138        48.30309        -2.15457
C         41.35437        47.97342        -1.48386
C         43.55064        25.31489        -1.46256
C         44.92167        27.50226        -1.70798
C         43.92636        26.65343        -0.90867
C         45.12482        28.85111        -0.98093
C         43.88207        29.64863        -0.62630
C         45.34078        31.55916         0.29702
C         44.05075        30.81677         0.34918
C         45.25919        33.05587         0.15862
C         44.06731        33.77395         0.83075
C         45.27000        35.96084         0.32897
C         43.96738        35.22491         0.35548
C         45.29328        37.33955         0.87281
C         43.97109        38.08187         1.00162
C         45.28914        40.28419         0.50172
C         44.03570        39.61357         0.96687
C         45.26516        41.59893         0.10240
C         43.97818        42.36335        -0.07052
C         45.25085        44.51309        -0.60660
C         44.09466        43.87697         0.14356
C         45.17411        45.80096        -1.14362
C         43.95661        46.52265        -1.26406
C         43.64405        47.65191        -2.02507
C         47.43883        27.42017        -1.61036
C         46.31117        26.95850        -1.77716
C         47.74443        28.90562        -1.53602
C         46.46789        29.45076        -0.81350
C         47.88614        31.63655        -0.10813
C         46.57926        30.82523        -0.19281
C         47.77164        33.04761        -0.73229
C         46.49832        33.80579        -0.27060
C         47.87968        36.06846        -0.08440
C         46.58718        35.29385        -0.03938
C         47.93375        37.35405         0.71224
C         46.59929        38.06327         0.97398
C         47.89516        40.18068         0.36931
C         46.56359        39.50364         0.53464
C         47.84730        41.60758        -0.12388
C         46.51402        42.29501        -0.32709
C         47.84382        44.27114        -1.37254
C         46.59085        43.83053        -0.37657
C         47.57028        45.74088        -1.46854
C         46.45737        46.26007        -1.63711
C         50.33473        28.94506        -1.45921
C         49.03318        29.31973        -0.77627
C         50.34640        31.66492        -0.99936
C         49.09033        30.87730        -0.75532
C         50.38266        33.00019        -0.21797
C         49.13528        33.84900        -0.57363
C         50.48179        36.24044        -0.43120
C         49.18678        35.36302        -0.41553
C         50.51139        37.48906         0.47876
C         49.22683        38.09423         0.95542
C         50.26171        40.56894         1.27335
C         49.03946        39.62056         1.27200
C         49.86532        42.06962         1.29820
C         49.09141        42.44406         0.01619
C         49.97701        44.71560         0.13049
C         49.09620        43.81919        -0.63505
C         51.43266        29.51794        -1.40271
C         52.81146        31.72167        -0.86923
C         51.83877        30.92208        -1.62452
C         52.81629        32.92000        -0.56272
C         51.70880        33.82231        -0.22046
C         52.90398        36.22212        -0.32759
C         51.73207        35.31001        -0.19851
C         52.87861        37.25184         0.37432
C         51.73646        37.98838         0.86568
C         52.31371        41.17178         2.43129
C         51.48129        40.16818         1.81442
C         52.15138        42.39191         2.09610
C         51.09700        43.08272         1.54347
C         50.92242        44.27615         0.84198
O         46.00760        37.49355         2.15694
O         49.42253        31.46295        -2.06376
O         36.49451        29.96782         2.96225
O         44.09559        38.89142         2.24549
O         38.00856        38.21825        -0.27748
O         47.37613        39.37146        -0.71395
O         47.02194        36.06769        -1.23711
O         40.92177        40.15008         2.58700
O         41.05814        43.16509        -0.82699
O         34.23125        44.26254         1.29021
O         39.79771        33.03402        -0.35919
O         36.79509        33.39317         2.57530
O         41.13547        35.65789         2.43454
O         45.42375        33.45161        -1.21658
O         39.62641        44.80984         1.93689
O         51.95960        38.89514         1.86791
O         44.51412        35.71446        -0.90389
O         51.76847        34.58048         1.03404
O         42.96435        45.85805         0.94042
O         32.32287        33.79816        -2.30866
O         37.24764        44.50565        -1.02048
O         42.46729        31.04072         2.11259
O         49.21290        34.70680        -1.73141
O         49.80339        42.68883        -1.22668
O         38.68326        28.42242         2.36788
O         37.47387        42.06496        -0.72750
O         43.16175        41.75504        -1.12362
O         39.82992        31.06152         2.62797
O         33.04764        37.52040         0.49622
O         46.74991        29.62953         0.62371
O         40.94340        26.31486         0.84414
O         42.12411        28.41685        -1.73132
O         32.66715        42.29787        -2.57920
O         39.07342        34.53516         2.94950
O         31.61393        31.58913         1.64048
O         35.21738        36.12103         1.86687
O         48.64384        37.21956         1.99253
O         39.61881        42.44584         2.32913
O         44.91838        30.88349         1.51681
O         47.22438        41.66470        -1.42966
O         35.86961        37.12563        -1.61360
H         36.75352        36.68728        -1.60851
O         47.56188        32.86844        -2.12992
H         47.46780        33.75575        -2.53910
O         33.43952        39.86382         1.11233
H         32.68865        39.22836         1.23297
O         33.04040        34.98440         1.06916
H         32.95674        35.88926         1.44980
O         41.53124        37.86458         2.83652
H         42.42647        38.14357         3.13586
O         34.95081        42.90205        -1.83678
H         35.27592        42.05394        -2.22586
O         47.77458        43.72517        -2.64995
H         48.47627        43.04241        -2.74913
O         50.28275        32.56597         1.14441
H         50.67904        33.24804         1.73282
O         38.41978        27.27747        -1.63251
H         37.55351        26.94547        -1.94977
O         43.03931        41.17925         2.37650
H         43.16706        40.50673         3.08231
O         35.85122        40.29348        -1.53569
H         36.81014        40.52156        -1.54964
O         40.21855        37.46389        -0.59498
H         40.92216        36.86230        -0.95335
O         48.51905        39.68331         2.62103
H         48.36384        38.75320         2.93034
O         33.66724        39.96288        -2.52643
H         33.38950        40.66443        -3.15876
O         44.37973        33.88788         2.23962
H         44.21255        33.01839         2.66761
O         47.06094        44.27625         0.91252
H         46.30870        44.18446         1.54966
O         43.64782        30.39549        -1.86844
H         43.23364        29.76164        -2.50615
O         31.14835        39.25088         0.09800
H         30.50062        38.51211         0.10523
O         44.44617        26.53538         0.40154
H         43.85266        25.97644         0.94588
O         49.06306        28.83078         0.54294
H         48.77948        27.89232         0.54484
O         34.97932        33.31453        -1.45453
H         35.17960        32.36253        -1.57661
O         37.20658        37.39061         2.91651
H         37.44820        38.27305         3.29228
O         32.41264        38.06801        -3.12267
H         31.80786        38.62723        -3.65230
O         47.76685        29.43195        -2.84298
H         48.67376        29.35217        -3.20725
O         51.90919        31.23643        -2.96805
H         51.07899        30.95345        -3.40730
O         33.70414        29.48245         3.23385
H         34.15568        30.31178         3.53489
O         34.52329        30.34798        -0.27819
H         33.86537        29.78205        -0.73788
O         44.40325        27.72472        -3.01130
H         45.09551        28.15174        -3.55828
O         37.87982        35.76557        -0.33338
H         38.69945        36.26090        -0.59083
O         48.01937        31.82921         1.30083
H         48.01973        30.94470         1.73070
O         42.03127        28.55400         1.85706
H         41.59056        28.94414         2.64414
O         44.48499        43.92121         1.55980
H         44.21624        44.80776         1.90358
O         34.64981        31.89073         2.99749
H         35.36098        32.42204         3.42703
O         38.57308        39.60392         3.00501
H         39.46161        39.59111         3.44097
O         34.83412        41.89494         1.66082
H         34.09191        41.27395         1.85748
O         40.73598        47.08893         1.49707
H         40.30545        46.62672         2.25197
O         40.88005        25.74116        -2.77696
H         40.82680        24.98558        -3.39608
O         42.12477        35.77174        -0.97867
H         42.88505        35.94122        -1.58538
O         48.92093        42.28423         2.34559
H         49.04516        41.60909         3.04943
O         50.59806        36.77742        -1.75304
H         50.27497        36.11084        -2.40051
