         477
 CSIRO Nanostructure Databank - Neutral Graphene Oxide Data Set
C         28.01209        26.81594        -2.43919
C         28.01046        28.13440        -2.94589
C         26.80403        28.89064        -3.21623
C         27.75108        31.00727        -2.25187
C         26.69658        30.20495        -2.85163
C         27.72207        33.06535        -0.93479
C         26.57970        33.79256        -0.41671
C         27.96477        35.74217        -0.02339
C         26.66429        35.06437         0.00885
C         27.97297        37.22273         0.26178
C         26.75317        38.01182         0.56587
C         28.15668        39.87968         1.30693
C         26.87826        39.24660         1.12602
C         28.36410        40.98757         2.14119
C         27.30143        41.53047         2.94817
C         28.64886        43.48507         3.50028
C         27.44356        42.71681         3.61240
C         28.75033        44.78240         4.06792
C         30.35455        27.05542        -1.73675
C         29.17189        26.28648        -1.88601
C         30.36980        28.37163        -2.24689
C         29.24685        28.80700        -2.95253
C         30.27498        31.48180        -1.94559
C         29.08933        30.90793        -2.55122
C         30.23437        32.88714        -1.47605
C         29.00600        33.60569        -1.03824
C         30.30912        35.73314        -0.78043
C         29.12966        35.03573        -0.66394
C         30.37831        37.22149        -0.55261
C         29.17173        38.01483        -0.15275
C         30.61134        39.72129         1.06822
C         29.28543        39.46934         0.37653
C         30.81925        41.02490         1.68645
C         29.65572        41.65622         2.18450
C         30.94134        43.72465         2.61909
C         29.75309        42.94882         2.79192
C         30.98375        45.06290         3.11082
C         29.87531        45.55046         3.86715
C         32.59548        24.71976         0.20452
C         31.50740        25.24407        -0.43028
C         32.77357        27.17913        -1.23635
C         31.57265        26.50089        -1.14552
C         32.85791        28.55093        -1.79299
C         31.57373        29.25508        -2.21564
C         32.74753        31.42603        -1.87790
C         31.48232        30.74517        -2.00550
C         32.68008        32.90768        -1.97737
C         31.42837        33.56489        -1.49625
C         32.70395        35.68206        -1.75095
C         31.59691        34.97412        -0.99357
C         32.81373        37.65838        -0.86883
C         31.67603        37.83449        -0.12774
C         33.51888        39.85020         0.89267
C         31.61319        38.80197         0.94588
C         33.25586        41.23720         0.99949
C         32.05718        41.76422         1.56108
C         33.10988        44.04197         1.52415
C         32.04512        43.18423         1.88657
C         33.12391        45.38880         1.94713
C         32.10923        45.89099         2.79481
C         33.25474        48.05159         3.03645
C         32.22755        47.22407         3.34156
C         35.01090        23.53608         1.44592
C         35.01740        24.75460         0.68822
C         33.89319        25.31679         0.09337
C         35.21000        27.39061        -0.52730
C         34.06755        26.46329        -0.89572
C         35.22096        28.76726        -0.99119
C         34.05864        29.36495        -1.48830
C         35.26518        31.50241        -1.99655
C         33.98278        30.77157        -1.78888
C         35.27156        33.00152        -2.12319
C         33.95706        33.69909        -2.08362
C         35.15714        36.03571        -2.20605
C         33.94936        35.16322        -1.84350
C         35.23470        37.38268        -1.40990
C         34.22184        38.03284        -0.68971
C         35.72006        40.07260        -0.11728
C         34.46381        39.26382         0.03543
C         35.42321        41.54064        -0.34330
C         34.18710        42.13568         0.25378
C         35.44143        44.34625         0.54576
C         34.08238        43.64747         0.42758
C         35.45606        45.64396         0.94171
C         34.21304        46.28117         1.47235
C         35.56519        48.43596         2.05506
C         34.27783        47.69077         2.04164
C         35.69406        49.67384         2.60635
C         37.44994        23.54108         1.83877
C         36.14564        22.96423         1.97134
C         37.55537        24.80477         1.07077
C         36.32339        25.42384         0.47790
C         37.46462        27.71017         0.44100
C         36.28881        26.87031         0.13612
C         37.55490        29.02434        -0.23044
C         36.46839        29.51579        -0.90858
C         37.62927        31.70620        -1.12891
C         36.58659        30.76068        -1.77600
C         37.70850        33.11501        -1.69245
C         36.50030        33.82784        -1.89251
C         37.73031        35.96955        -2.16533
C         36.45287        35.23361        -1.98992
C         37.73393        37.47619        -2.12644
C         36.61300        38.01631        -1.24721
C         37.71065        40.35673        -1.73084
C         36.59827        39.51400        -1.17177
C         37.73952        41.77057        -1.14600
C         36.64884        42.35285        -0.57699
C         37.76888        44.61589        -0.44610
C         36.75437        43.66361         0.17357
C         37.89818        45.93190         0.21645
C         36.59164        46.59807         0.60409
C         37.96662        48.62800         1.24693
C         36.82615        47.67321         1.69079
C         38.10751        49.83179         2.15560
C         36.97215        50.32630         2.74155
C         39.75388        21.02478         3.30877
C         38.61262        21.70652         3.07836
C         39.90461        23.60539         2.13713
C         38.61811        22.95209         2.32675
C         39.90779        25.00437         1.73287
C         38.77381        25.61749         1.26806
C         40.02487        27.75196         0.66589
C         38.73688        27.06450         0.93784
C         40.08419        29.01719         0.17977
C         38.81166        29.83860         0.05397
C         40.22474        31.79459        -0.83701
C         38.97997        30.94021        -1.00178
C         40.21874        33.11030        -1.23863
C         38.94943        33.85483        -1.40375
C         40.29813        36.06557        -1.77492
C         39.00158        35.32174        -1.70743
C         40.29210        37.44070        -1.84375
C         39.06340        38.26115        -2.19714
C         40.34115        40.37156        -1.66189
C         39.05335        39.59572        -1.41227
C         40.27480        41.85970        -1.74147
C         38.97638        42.55406        -1.43577
C         40.28704        44.70771        -0.91347
C         38.98438        44.01872        -1.09251
C         40.31214        45.99615        -0.29380
C         39.10563        46.58162         0.26537
C         40.46510        48.67379         0.86660
C         39.27522        47.79515         1.16929
C         40.51031        49.97284         1.47385
C         39.37984        50.53278         2.14560
C         40.69693        52.50582         2.73222
C         39.50859        51.79895         2.76614
C         42.26205        20.94707         3.40456
C         41.05076        21.45330         2.67256
C         42.38635        23.59377         2.32660
C         41.09513        22.94186         2.42119
C         42.43911        24.92484         1.86077
C         41.20183        25.71599         1.72972
C         42.54197        27.47736         0.40239
C         41.27068        27.08036         1.11900
C         42.64805        28.98173         0.22104
C         41.37765        29.80854         0.30009
C         42.68426        31.70266        -0.65007
C         41.45493        31.08940        -0.51591
C         42.75909        33.07952        -1.18956
C         41.47525        33.83905        -1.48763
C         42.73957        35.98066        -1.38119
C         41.52495        35.32485        -1.53789
C         42.83556        37.43775        -1.62071
C         41.54910        38.21191        -1.90115
C         42.87564        40.41274        -1.74213
C         41.52034        39.69929        -1.72614
C         42.78751        41.87506        -1.32269
C         41.58700        42.65772        -1.81226
C         42.72353        44.73677        -0.99797
C         41.49174        44.04434        -1.19372
C         42.71635        46.13313        -0.70495
C         41.53475        46.73972        -0.26141
C         42.82525        48.84505         0.20956
C         41.58970        48.10595         0.26188
C         42.89392        50.13476         0.82074
C         41.73878        50.69958         1.44383
C         43.07263        52.67871         2.05829
C         41.83169        51.97273         2.07785
C         43.44778        21.60161         3.34470
C         44.86454        23.53829         2.63252
C         43.58175        22.89991         2.72920
C         44.90714        24.93059         2.14198
C         43.68393        25.58399         1.61234
C         45.05097        27.36297         0.46974
C         43.76316        26.83612         1.02117
C         45.13130        28.89296         0.50802
C         43.85117        29.60531         0.09023
C         45.13733        31.68529        -0.32305
C         43.92593        31.03090        -0.25515
C         45.18767        33.10298        -0.71634
C         43.95042        33.87560        -0.88527
C         45.14554        36.02792        -0.73322
C         43.95872        35.27694        -1.00755
C         45.12983        37.45800        -0.73200
C         44.00491        38.17839        -1.11691
C         45.18370        40.39951        -0.74246
C         43.86160        39.66138        -0.81632
C         45.19330        41.81313        -0.75802
C         43.93981        42.56035        -0.95579
C         45.14306        44.73717        -0.49160
C         43.94214        44.00140        -0.88620
C         45.24574        46.19742        -0.70040
C         43.95051        46.93916        -1.03164
C         45.21698        48.99386        -0.36480
C         43.98984        48.30828        -0.39844
C         45.31692        50.19830         0.37040
C         44.14119        50.81978         0.89011
C         44.19009        52.11421         1.50021
C         47.35844        23.55402         2.69118
C         46.08967        22.92373         2.90097
C         47.49589        24.75742         2.03592
C         46.23671        25.46061         1.71026
C         47.61746        26.96486         0.30746
C         46.26888        26.50243         0.65191
C         47.58437        29.03826        -0.28388
C         46.40163        29.60826         0.08462
C         47.69787        31.75730        -0.10838
C         46.39472        31.09947         0.32581
C         47.71955        33.10342        -0.29725
C         46.46198        33.84961        -0.58459
C         47.66594        36.00275        -0.60581
C         46.36147        35.30228        -0.17446
C         47.63164        37.46106        -0.19889
C         46.35642        38.21461        -0.35244
C         47.62121        40.37265        -0.61367
C         46.39164        39.68821        -0.58319
C         47.65982        41.79397        -0.64697
C         46.42566        42.49820        -0.64151
C         47.71946        44.66617        -0.63633
C         46.47104        43.94691        -0.43349
C         47.72500        46.12672        -1.01466
C         46.43989        46.86003        -0.69837
C         47.78717        49.12921        -0.81321
C         46.43256        48.35151        -1.04474
C         47.75954        50.08683         0.35129
C         46.62508        50.67733         0.77301
C         50.03725        24.88028         2.09746
C         48.74782        25.65336         2.08459
C         50.01395        27.43094         0.60027
C         48.77542        26.71343         0.96982
C         50.06521        28.76533         0.17631
C         48.89972        29.62071        -0.05688
C         50.20279        31.73403         0.05475
C         48.95003        31.00863        -0.05756
C         50.21417        33.10572        -0.04649
C         49.01105        33.82385        -0.59894
C         50.24304        36.05514        -0.39569
C         48.94357        35.26193        -0.06733
C         50.13981        37.48098         0.20869
C         48.92977        38.16284        -0.41726
C         50.18082        40.34414        -0.40619
C         48.89768        39.62756        -0.63781
C         50.18122        41.81670        -0.46099
C         48.89347        42.52769        -0.61077
C         50.19301        44.66821        -0.47978
C         48.90844        43.93800        -0.68540
C         50.23159        46.14071        -0.57862
C         49.01432        46.85622        -0.67754
C         50.28053        48.91377        -0.64110
C         49.03652        48.25750        -0.70229
C         51.15530        25.33965         1.52280
C         52.62560        27.25954         0.60403
C         51.25181        26.61573         0.77102
C         52.67543        28.72267         0.26206
C         51.37975        29.48070         0.03804
C         52.65539        31.63232         0.15760
C         51.44697        30.97213         0.18060
C         52.69707        33.12207         0.08920
C         51.42315        33.86357         0.45283
C         52.67073        36.01722         0.20870
C         51.50067        35.33746         0.08760
C         52.73574        37.49663         0.04406
C         51.45573        38.23772         0.00627
C         52.70051        40.20320        -1.10847
C         51.41427        39.54752        -0.71435
C         52.67183        41.71563        -1.26835
C         51.42889        42.48592        -0.93809
C         52.76798        44.64728        -0.68601
C         51.49262        43.92436        -0.55484
C         52.76337        46.05130        -0.51180
C         51.48876        46.79983        -0.51455
C         51.47589        48.20985        -0.55915
C         54.89766        27.45560         1.56668
C         53.81936        26.69626         1.27331
C         54.96356        28.87216         1.23662
C         53.88554        29.48809         0.63463
C         55.24902        31.67631         0.52064
C         53.94572        30.90379         0.22021
C         55.24594        33.16436         0.52430
C         53.98352        33.87987         0.23001
C         55.22001        36.07581         0.24496
C         53.94329        35.34240         0.66293
C         55.22112        37.44668        -0.16079
C         53.99269        38.16873        -0.40050
C         55.26202        40.13530        -1.36609
C         53.98385        39.48808        -0.83796
C         55.27442        41.69495        -1.24459
C         53.97080        42.47572        -1.24555
C         55.20274        44.56099        -0.64800
C         53.96347        43.90623        -0.82724
C         55.20352        45.95728        -0.42505
C         54.02293        46.68866        -0.40532
C         56.13869        29.63523         1.59553
C         56.26588        30.95449         1.29962
C         56.38858        33.92405         0.64517
C         56.39157        35.32870         0.39301
C         56.44955        38.19054        -0.32124
C         56.48152        39.45957        -0.79873
C         56.44829        42.42936        -0.72190
C         56.41779        43.77436        -0.54399
O         39.65182        47.32489         2.44541
O         46.89886        37.83541         1.00065
O         38.77069        34.87424        -0.30767
O         27.27597        31.79673        -1.22017
O         32.51968        28.76233        -3.21830
O         42.26674        33.22773        -2.57000
O         49.05741        38.67999        -1.75870
O         47.62735        27.75570        -0.84368
O         46.05192        33.47911        -1.93596
O         37.58139        36.78711        -3.39148
O         51.84464        39.51038        -2.09317
O         45.71441        44.32773         0.78953
O         35.34203        32.15875        -3.31835
O         32.55564        37.02539        -2.09903
O         37.84371        27.79841         1.88726
O         50.86090        44.16552         0.74709
O         54.94510        31.15378        -0.81641
O         37.93332        44.68757        -1.88688
O         41.31433        26.95755         2.56620
O         53.39862        33.63085        -1.08746
O         28.31717        36.26419         1.33203
O         52.20387        29.02242        -1.08780
O         50.29514        41.09708         0.83543
O         52.22725        38.24694         1.25554
O         37.24412        24.64949        -0.37801
O         51.77064        42.19061        -2.32325
O         45.45428        26.43512        -0.59505
O         52.05345        26.44444        -0.45256
O         29.35389        30.03073        -3.63537
O         33.13861        33.41649        -3.28673
O         33.74092        47.43605         0.68195
O         32.77264        38.97698         1.70502
O         54.75254        42.29511        -2.47757
O         29.55455        37.94396        -1.56196
O         39.39955        42.31411        -2.84017
O         42.43716        37.81231        -2.98885
O         34.26786        41.78184        -1.19492
O         46.25500        48.28541        -2.46686
O         45.62316        25.92165         2.98758
O         48.85042        35.08456         1.35622
H         48.91699        35.97378         1.78856
O         49.17433        33.84996        -2.05562
H         49.22015        32.92256        -2.37400
O         39.29316        30.20055        -2.20080
H         39.26532        30.79972        -2.97530
O         41.36685        30.28807         1.69382
H         40.43510        30.56854         1.88593
O         41.08612        20.82044         1.33918
H         41.02268        19.85105         1.47080
O         43.90988        47.07506        -2.47457
H         44.73682        47.59146        -2.72483
O         41.86709        42.84067        -3.23844
H         41.01036        43.08848        -3.66082
O         29.17673        40.35194        -0.76475
H         29.46087        39.83393        -1.55528
O         42.40726        26.90773        -0.93755
H         43.29627        26.88284        -1.35473
O         51.31431        33.81440         1.90757
H         50.41183        34.15802         2.12371
O         32.18100        34.83456         0.36573
H         31.47451        34.49939         0.95941
O         37.17063        46.98736         2.90663
H         38.17512        46.95336         2.98903
O         50.39169        36.26096        -1.80311
H         50.16080        35.42923        -2.27807
O         36.10995        47.23162        -0.62396
H         35.15717        47.47152        -0.47259
O         53.94455        35.33639         2.11734
H         53.78198        36.25310         2.42435
O         45.13545        29.07990         1.98688
H         44.26444        28.78456         2.33638
O         43.23920        39.71695         0.50877
H         43.91131        39.45404         1.17370
O         38.65081        30.42116         1.38464
H         38.32875        29.68016         1.95961
O         55.27877        39.83346        -2.78735
H         54.80036        40.56904        -3.24175
O         37.52067        40.44322        -3.14843
H         38.21535        41.04704        -3.50689
O         35.05274        36.36855        -3.60689
H         34.15593        36.73787        -3.75658
O         43.41565        40.41367        -3.07228
H         42.92076        41.08859        -3.59321
O         37.02825        37.57277         0.11528
H         37.91544        37.98486         0.28979
O         34.48639        25.83973        -2.15448
H         33.75881        25.25730        -2.45842
O         46.29347        31.43366         1.73439
H         45.75257        30.72738         2.16898
O         37.07651        31.95327         0.19248
H         37.69881        32.52446         0.69237
O         37.01155        30.29836        -3.06721
H         36.53724        30.83414        -3.74560
O         39.28981        38.63856        -3.56954
H         38.87033        37.95079        -4.13739
O         37.72687        49.19317        -0.04872
H         37.24151        48.53394        -0.61049
O         47.67228        36.04454        -2.03735
H         47.72596        35.12802        -2.39367
O         47.70582        46.06549        -2.48355
H         47.21761        46.90130        -2.78095
O         37.37881        43.28779         1.44805
H         36.93891        42.47729         1.78617
O         33.48527        44.18783        -0.78075
H         33.71091        43.56833        -1.51468
O         48.63497        26.33574         3.36614
H         47.68186        26.49323         3.54968
O         46.20748        35.27805         1.25955
H         46.33098        36.20275         1.58776
O         39.04988        39.32458         0.01775
H         39.97454        39.21546         0.32663
O         49.87758        37.44002         1.62357
H         50.73569        37.63963         2.07738
O         36.42735        40.04371         1.18096
H         36.62566        39.09288         1.35630
O         47.97245        49.97839        -1.97007
H         47.35474        49.59191        -2.65428
H         27.08688        26.22295        -2.44972
H         25.89565        28.34951        -3.52147
H         25.69521        30.66355        -2.85450
H         25.62613        33.24839        -0.38208
H         25.79177        35.57715         0.43252
H         25.75770        37.56060         0.45543
H         25.96850        39.76751         1.46052
H         26.34672        40.99076         3.01195
H         26.61066        43.12361         4.20409
H         27.90203        45.18505         4.63980
H         29.14716        25.24931        -1.52797
H         29.89975        46.56506         4.28531
H         32.46910        23.81339         0.81249
H         30.53893        24.74000        -0.32111
H         33.35012        49.00726         3.57045
H         31.49402        47.55870         4.08709
H         34.05630        23.01325         1.59820
H         34.81220        50.21797         2.97551
H         36.04103        22.01366         2.51319
H         36.99234        51.26250         3.31698
H         39.73443        20.08195         3.87726
H         37.66006        21.32918         3.47780
H         40.76956        53.48720         3.22272
H         38.64790        52.24324         3.28386
H         42.19886        19.96462         3.89771
H         43.12361        53.67736         2.51575
H         44.33236        21.15210         3.81879
H         45.13230        52.67837         1.50223
H         48.24985        23.01364         3.04275
H         46.10460        21.89867         3.29744
H         48.72493        50.42011         0.76260
H         46.68249        51.45576         1.54717
H         50.06070        23.92077         2.63496
H         50.30813        50.01045        -0.70262
H         52.06205        24.71831         1.55173
H         52.41904        48.77276        -0.54526
H         55.77706        26.99897         2.04356
H         53.83978        25.61860         1.48456
H         56.16392        46.47321        -0.28139
H         54.08175        47.77564        -0.25932
H         56.92457        29.12649         2.17276
H         57.11873        31.52226         1.69937
H         57.35834        33.43278         0.81168
H         57.37268        35.80325         0.25032
H         57.39641        37.72196        -0.01764
H         57.45739        39.94808        -0.93053
H         57.37885        41.88170        -0.51880
H         57.33228        44.29548        -0.22289
