         244
 CSIRO Nanostructure Databank - Neutral Graphene Oxide Data Set
C          1.35806         2.11550         1.29244
C          1.32847         3.54407         1.16379
C          2.53971         1.42695         1.27997
C          2.48175         4.29379         1.12006
C          1.25389         6.47375         0.89257
C          1.21154         7.81689         0.62836
C          2.48853         5.73870         0.96162
C          2.40269         8.60802         0.51245
C          1.15525        10.75405         0.27259
C          1.11469        12.07448        -0.04277
C          2.37565         9.97516         0.29445
C          2.29863        12.77436        -0.59166
C          1.10717        15.05148        -0.38630
C          1.12931        16.38759        -0.29133
C          2.32952        14.29114        -0.86558
C          2.34053        17.16863        -0.74314
C          2.38393        18.59825        -0.26991
C          3.79613         2.12735         1.18488
C          3.80336         3.62044         1.43230
C          4.97352         1.45692         0.99157
C          4.98615         4.31700         0.80315
C          3.70384         6.42092         0.77265
C          3.72491         7.93468         0.84495
C          4.92056         5.69301         0.58100
C          4.90219         8.57684         0.13864
C          3.67679        10.75064         0.30411
C          3.60593        12.05752        -0.46883
C          4.86169         9.92667        -0.13069
C          4.89149        12.80494        -0.55571
C          3.56614        14.93923        -0.16953
C          3.61893        16.42815        -0.41995
C          4.87472        14.24851        -0.48349
C          4.81292        17.11366        -0.37893
C          3.55560        19.25054        -0.13221
C          4.83417        18.56890        -0.29228
C          6.22592         2.15397         0.78710
C          6.20166         3.58660         0.60089
C          7.42170         1.45892         0.71750
C          7.41199         4.26124         0.28598
C          6.08477         6.35004        -0.12868
C          6.11580         7.84227        -0.03039
C          7.41739         5.68796         0.12603
C          7.34424         8.55276        -0.12871
C          6.05003        10.58905        -0.78874
C          6.07207        12.09531        -0.64321
C          7.33083         9.91308        -0.36671
C          7.34281        12.79070        -0.69793
C          6.05057        14.96688        -0.57968
C          6.07426        16.40182        -0.43662
C          7.31484        14.26834        -1.02546
C          7.28282        17.11310        -0.42221
C          6.03127        19.24382        -0.23690
C          7.29672        18.55273        -0.28885
C          8.66374         2.12939         0.48011
C          8.64909         3.55202         0.24320
C          9.88007         1.44672         0.49309
C          9.85255         4.23875        -0.04548
C          8.61041         6.37976         0.00853
C          8.66050         7.87154         0.21650
C          9.84918         5.67406        -0.17370
C          9.85788         8.53085        -0.44637
C          8.58818        10.69146        -0.11207
C          8.52501        12.12748        -0.54146
C          9.84050         9.96896        -0.59938
C          9.84963        12.81487        -0.38832
C          8.56268        14.99993        -0.60031
C          8.54323        16.40573        -0.45960
C          9.78450        14.30504        -0.57582
C          9.75940        17.12009        -0.28932
C          8.50502        19.23667        -0.17928
C          9.76556        18.55202        -0.15377
C         11.10723         2.12200         0.23568
C         11.08867         3.52744        -0.10241
C         12.32878         1.44535         0.29284
C         12.28990         4.19602        -0.43276
C         11.01235         6.36696        -0.55831
C         10.98433         7.78079        -0.75947
C         12.23275         5.59139        -1.01257
C         12.17139         8.40949        -1.46856
C         10.95304        10.65157        -1.02201
C         10.96944        12.15258        -1.21534
C         12.20604         9.93803        -1.36694
C         12.27811        12.79023        -0.79258
C         10.98768        14.99361        -0.44777
C         10.99284        16.40609        -0.27243
C         12.28385        14.29608        -0.76152
C         12.20509        17.09488        -0.00624
C         10.98902        19.22371        -0.00110
C         12.22207        18.51154         0.10823
C         13.55879         2.10981         0.01500
C         13.52288         3.52680        -0.35054
C         14.75264         1.40132         0.05601
C         14.74190         4.26232        -0.46389
C         13.52827         6.38807        -0.88387
C         13.49428         7.74594        -1.09964
C         14.77574         5.65916        -0.68162
C         14.75054         8.51043        -1.34272
C         13.50125        10.69685        -1.17653
C         13.46518        12.11820        -0.75216
C         14.79516         9.98374        -1.11895
C         14.72896        12.78389        -0.40271
C         13.41708        14.83009         0.06519
C         13.40684        16.31814         0.33238
C         14.69697        14.10756         0.00080
C         14.69186        17.00769         0.48770
C         13.46416        19.15406         0.37730
C         14.67554        18.43611         0.52950
C         16.02316         2.03633        -0.39913
C         15.98397         3.53211        -0.16031
C         17.24977         1.42771         0.19536
C         17.29565         4.27565        -0.17960
C         16.03280         6.34630        -0.75492
C         16.05528         7.76483        -1.16526
C         17.26485         5.69532        -0.55608
C         17.28245         8.53478        -0.98392
C         15.97411        10.67746        -0.95485
C         15.99226        12.07059        -0.51817
C         17.28901        10.01115        -1.31295
C         17.20062        12.70646        -0.20514
C         15.87795        14.79748         0.53256
C         15.88707        16.28003         0.59982
C         17.20193        14.05098         0.41585
C         17.12432        16.96305         0.76726
C         15.90643        19.09107         0.82113
C         17.08737        18.38358         0.96478
C         18.55769         2.01684        -0.24103
C         18.55185         3.53039        -0.35363
C         19.77224         1.58330         0.54664
C         19.72636         4.19879        -0.56300
C         18.51612         6.34439        -0.77036
C         18.52024         7.77828        -1.09179
C         19.73973         5.64641        -0.69162
C         19.85155         8.51891        -1.06783
C         18.52863        10.72575        -0.79441
C         18.48957        12.04608        -0.37489
C         19.82315        10.02082        -0.95579
C         19.71836        12.77508        -0.02054
C         18.43576        14.86648         0.43419
C         18.37303        16.24077         0.66325
C         19.69549        14.16924         0.30358
C         19.63352        17.02055         0.65556
C         18.30260        19.15377         1.43163
C         19.60953        18.49592         1.05043
C         20.92645         2.23530         0.36785
C         21.01140         3.38682        -0.62664
C         22.22932         4.23262        -0.39125
C         20.99007         6.35631        -0.60178
C         21.02718         7.76126        -0.60951
C         22.20362         5.57864        -0.38217
C         22.16024         8.49988        -0.10605
C         21.07516        10.70547        -0.48303
C         20.96405        12.10435        -0.00899
C         22.19300         9.85329        -0.02386
C         22.14173        12.78844         0.34025
C         20.91195        14.86462         0.57371
C         20.91107        16.30345         0.79377
C         22.12147        14.14477         0.61283
C         22.05447        17.01560         1.10228
C         20.84052        19.07050         1.59374
C         22.01438        18.38076         1.51982
O         15.45552         8.02203        -2.53085
O          2.86721        11.99915        -1.72971
O         16.60321         3.94908         1.09413
O         13.10046        15.30965         1.39048
O         19.29842         8.07762        -2.35253
O         20.75893        10.62098        -1.92326
O         10.23481        12.66715         0.98865
O         19.66286        18.10155        -0.35397
O         16.47255        14.12129         1.69307
O         12.87446        10.52951        -2.53940
O         21.14673         2.81200        -1.95208
H         20.36099         2.22203        -2.08496
O          3.95504         8.25709         2.27230
H          3.31214         7.73497         2.79897
O         10.80091        12.44562        -2.63045
H         11.44343        11.86587        -3.10604
O          8.67191        10.71551         1.34747
H          9.33794        11.46945         1.54452
O          2.45762        14.47688        -2.29053
H          2.80048        13.62310        -2.65629
O          3.31796        14.75365         1.25983
H          4.10647        15.06914         1.74961
O          5.92456        10.34320        -2.23837
H          5.85597         9.37316        -2.37140
O          7.30470        14.34926        -2.49438
H          7.20985        15.29422        -2.73889
O          3.94302        11.10681         1.69530
H          4.04360        10.25644         2.19055
O          3.97366         3.77855         2.88922
H          3.24320         3.28375         3.31782
O          2.27913        17.23839        -2.20636
H          2.30143        16.30440        -2.53454
O         12.05160         5.38168        -2.45263
H         12.01073         6.28157        -2.87013
O          8.85522         8.03641         1.65490
H          8.83865         9.01790         1.82745
O          5.82529         6.09573        -1.56958
H          5.87325         5.12479        -1.70613
O         18.28785        20.49254         0.91837
H         18.51318        20.44349        -0.03429
O         17.39551        10.11053        -2.77248
H         18.11947         9.49379        -3.04550
O         18.74789         1.48805        -1.61600
H         17.89414         1.67293        -2.09139
O         16.08367         1.88569        -1.90624
H         15.68663         1.01491        -2.12540
O         11.97219         8.10895        -2.88647
H         12.58396         8.70353        -3.38182
O         12.57502        14.68357        -2.14999
H         11.93970        14.17864        -2.71362
H          0.40329         1.57318         1.33349
H          0.34352         4.01921         1.05601
H          2.54646         0.32697         1.27280
H          0.30404         5.93318         0.99888
H          0.23235         8.30028         0.50650
H          0.21799        10.26492         0.57682
H          0.15505        12.60481         0.02668
H          0.19282        14.50523        -0.11286
H          0.23437        16.93689         0.04071
H          1.43015        19.13256        -0.14147
H          4.97722         0.35646         0.94726
H          3.57326        20.31811         0.13628
H          7.42706         0.36840         0.86372
H          6.03648        20.33846        -0.12227
H          9.89950         0.36882         0.71245
H          8.49635        20.33270        -0.08101
H         12.34695         0.37400         0.54240
H         10.99838        20.31972         0.09136
H         14.74745         0.33509         0.32983
H         13.48639        20.24989         0.47414
H         17.23577         0.34087         0.38668
H         15.92345        20.18327         0.94957
H         19.69315         0.72192         1.22677
H         18.25098        19.23773         2.55194
H         21.84180         1.92125         0.89304
H         23.18931         3.70676        -0.27526
H         23.15178         6.11927        -0.25407
H         23.02465         7.94013         0.27573
H         23.06986        10.33085         0.43410
H         23.10489        12.26244         0.34067
H         23.06844        14.65311         0.83222
H         23.02772        16.50945         1.14960
H         20.78923        20.05440         2.08139
H         22.94462        18.83930         1.88400
