         430
 CSIRO Nanostructure Databank - Neutral Graphene Oxide Data Set
C         27.90848        27.34359        -0.53431
C         27.84355        28.75733        -0.00076
C         26.63867        29.55502        -0.43996
C         27.89064        31.64281        -0.07195
C         26.66102        30.90127        -0.33536
C         27.89382        33.06362         0.07750
C         26.69758        33.80704         0.35235
C         27.87125        35.95416         0.26744
C         26.70799        35.17751         0.51497
C         27.90700        37.37978         0.37606
C         26.69035        38.11449         0.47421
C         27.89936        40.20002         0.78555
C         26.68693        39.48104         0.63274
C         27.87238        41.64423         1.10315
C         26.66979        42.47589         0.91495
C         27.99707        44.55182         0.98205
C         26.73913        43.83025         0.93910
C         28.02344        45.97084         1.01615
C         30.37356        27.29669        -0.35654
C         29.08794        26.69034        -0.66269
C         30.37202        28.74330         0.10372
C         29.13918        29.47782        -0.43651
C         30.33814        31.66842        -0.20288
C         29.12632        30.96498        -0.15855
C         30.35161        33.08707        -0.15873
C         29.12073        33.77119        -0.04245
C         30.40751        36.01896        -0.19650
C         29.07050        35.23673        -0.15439
C         30.39914        37.42231         0.23986
C         29.15164        38.10036         0.42948
C         30.38509        40.25148         0.69599
C         29.13144        39.51480         0.70389
C         30.41150        41.62501         0.68814
C         29.21379        42.39024         1.03607
C         30.45177        44.55263         0.78777
C         29.21219        43.85389         0.89159
C         30.46441        45.97371         0.90167
C         29.22301        46.65546         1.01280
C         32.85938        24.54165        -0.66606
C         31.66690        25.20433        -0.65697
C         32.83386        27.31031         0.10796
C         31.57054        26.61094        -0.36519
C         32.82861        28.79368        -0.20495
C         31.64626        29.46293        -0.25206
C         32.80750        31.61966         0.11376
C         31.62126        30.94790        -0.56209
C         32.83781        33.11416        -0.09284
C         31.62063        33.82203        -0.15767
C         32.87249        35.94039         0.07528
C         31.64906        35.24160        -0.08630
C         32.86713        37.37692         0.22539
C         31.64314        38.06733         0.38661
C         32.90617        40.25590         0.38200
C         31.68323        39.49798         0.85063
C         32.90065        41.63843         0.29937
C         31.60088        42.38749         0.15590
C         32.89397        44.51801         0.50276
C         31.67171        43.83634         0.58513
C         32.93942        45.95104         0.69061
C         31.73252        46.66694         0.89918
C         33.00265        48.73301         1.18193
C         31.80008        48.07141         1.12870
C         35.42440        23.09378        -0.76510
C         35.37791        24.51583        -0.66550
C         34.12380        25.22901        -0.52560
C         35.34103        27.34894        -0.34029
C         34.11913        26.61217        -0.30481
C         35.33795        28.77883        -0.28175
C         34.09879        29.51626        -0.26395
C         35.32006        31.65369        -0.16809
C         34.10054        30.90562        -0.19775
C         35.30140        33.04672        -0.02063
C         34.07678        33.79469        -0.00068
C         35.35256        35.94174         0.08162
C         34.10292        35.22416         0.07347
C         35.35305        37.37970         0.09918
C         34.11615        38.09358         0.22272
C         35.35362        40.22668         0.06173
C         34.12837        39.51641         0.24116
C         35.36074        41.65218         0.00186
C         34.12043        42.38542         0.13549
C         35.34633        44.55102        -0.00788
C         34.10617        43.78803         0.21176
C         35.42331        45.96109         0.44374
C         34.19337        46.65649         0.68530
C         35.49858        48.73543         1.00235
C         34.23247        48.04838         0.96573
C         35.57734        50.13313         1.26731
C         37.86726        23.09123        -0.78045
C         36.61903        22.41065        -0.81260
C         37.85651        24.51506        -0.70626
C         36.60195        25.22495        -0.64282
C         37.80148        27.38304        -0.49882
C         36.58877        26.66014        -0.50553
C         37.80134        28.78463        -0.32247
C         36.56114        29.48905        -0.25633
C         37.78872        31.61150        -0.26676
C         36.57497        30.92480        -0.22918
C         37.74851        33.09695        -0.51590
C         36.60862        33.75775         0.24422
C         37.80293        35.93235        -0.14440
C         36.57533        35.24692        -0.00068
C         37.82677        37.36391        -0.11092
C         36.58399        38.08091         0.02857
C         37.80947        40.22855        -0.12713
C         36.58745        39.51574         0.00330
C         37.80455        41.61699        -0.26830
C         36.58477        42.32433        -0.19289
C         37.92482        44.45868        -0.00670
C         36.62214        43.79540        -0.25663
C         37.94418        45.81660         0.64761
C         36.65292        46.60443         0.55273
C         37.96453        48.70862         0.77385
C         36.70622        48.01338         0.80030
C         38.00110        50.11130         0.98657
C         36.78166        50.79201         1.27476
C         40.40756        20.29353        -0.98580
C         39.19181        20.97480        -1.01382
C         40.33503        23.12921        -0.76036
C         39.12982        22.39462        -0.86315
C         40.32101        24.53666        -0.59900
C         39.08812        25.22248        -0.65077
C         40.31710        27.39532        -0.34736
C         39.09110        26.70624        -0.88147
C         40.26434        28.76613        -0.10351
C         39.03919        29.49694        -0.19000
C         40.24118        31.66778        -0.02934
C         39.03228        30.92467        -0.15705
C         40.26496        33.08290        -0.19794
C         39.05718        33.80351        -0.28865
C         40.28240        35.92588        -0.34665
C         39.04871        35.21424        -0.25187
C         40.28449        37.34750        -0.34852
C         39.05887        38.04683        -0.19608
C         40.33099        40.22250        -0.39246
C         39.10670        39.51169         0.12057
C         40.32981        41.60671        -0.52280
C         39.03903        42.35928        -0.73612
C         40.37484        44.46734        -0.20638
C         39.09171        43.78420        -0.23306
C         40.37778        45.90508        -0.03643
C         39.18313        46.59515         0.28743
C         40.39144        48.73135         0.26637
C         39.18024        48.00023         0.45369
C         40.39618        50.13874         0.46870
C         39.24520        50.82624         0.85745
C         40.52077        52.90808         1.16873
C         39.33573        52.26870         1.08974
C         42.86649        20.26763        -0.77897
C         41.62821        20.96977        -0.88340
C         42.80217        23.13291        -0.30072
C         41.66102        22.46675        -1.03196
C         42.78299        24.51374        -0.12387
C         41.56314        25.26090        -0.35276
C         42.74991        27.37671         0.15437
C         41.53264        26.65949        -0.17653
C         42.75572        28.76629         0.32619
C         41.46755        29.47115         0.37037
C         42.75356        31.76416         0.59706
C         41.44959        30.98425         0.44608
C         42.74188        33.09886        -0.10609
C         41.52273        33.78212        -0.26589
C         42.72015        35.89982        -0.70484
C         41.51619        35.21328        -0.46292
C         42.73046        37.32379        -0.74630
C         41.52770        38.05052        -0.51233
C         42.75494        40.18295        -0.78616
C         41.54116        39.48430        -0.53763
C         42.76785        41.61015        -0.75029
C         41.55972        42.32254        -0.60752
C         42.82402        44.47118        -0.50872
C         41.56500        43.76826        -0.45604
C         42.82268        45.90683        -0.48458
C         41.59108        46.62639        -0.24163
C         42.80957        48.77656        -0.30177
C         41.59705        48.04594        -0.10972
C         42.87667        50.16133        -0.09023
C         41.60806        50.95728         0.10014
C         42.99864        52.94191         0.59055
C         41.81137        52.13175         1.05192
C         44.02002        20.91106        -0.43282
C         45.28604        23.05162         0.31189
C         43.99468        22.32152        -0.00308
C         45.25051        24.53763         0.42372
C         43.99006        25.23984         0.25869
C         45.15982        27.39022         0.75129
C         43.96120        26.63078         0.35489
C         45.21089        28.83609         0.47150
C         43.98652        29.52824         0.38590
C         45.20598        31.64871         0.12930
C         43.99437        30.95321         0.29236
C         45.19741        33.06898        -0.17196
C         43.97261        33.73859        -0.36517
C         45.23296        35.81527        -1.16645
C         43.90852        35.04860        -1.12132
C         45.21410        37.31604        -1.22996
C         43.94300        38.05288        -1.01694
C         45.20405        40.18928        -1.42979
C         43.95971        39.43937        -1.01555
C         45.21886        41.62273        -0.94733
C         44.04154        42.31620        -0.77916
C         45.27541        44.48037        -0.79083
C         44.04234        43.76795        -0.64698
C         45.25357        45.90906        -0.84693
C         44.02686        46.60222        -0.69573
C         45.29504        48.78357        -0.71339
C         43.98334        48.08438        -0.93808
C         45.31984        50.17919        -0.48460
C         44.08495        50.88525        -0.20272
C         44.06446        52.31689         0.03188
C         47.73657        23.13674         0.19450
C         46.60327        22.46452        -0.05402
C         47.68590        24.41001         1.01212
C         46.42949        25.19147         0.69722
C         47.73236        27.37641         0.73250
C         46.46038        26.64236         0.92755
C         47.69229        28.80849         0.54722
C         46.45725        29.51880         0.42467
C         47.67497        31.65708         0.15067
C         46.45620        30.94157         0.20277
C         47.67351        33.09169        -0.06392
C         46.44674        33.77403        -0.31581
C         47.68584        35.87185        -0.64810
C         46.48520        35.14782        -0.70174
C         47.76537        37.28405        -1.19323
C         46.47788        38.06128        -1.05075
C         47.72912        40.15672        -1.15617
C         46.49327        39.43901        -1.15650
C         47.69038        41.62668        -1.47873
C         46.54587        42.29903        -0.70328
C         47.70570        44.47884        -1.20981
C         46.51178        43.78875        -0.95030
C         47.69319        45.91325        -1.21120
C         46.48424        46.62151        -1.02818
C         47.71750        48.77026        -1.07275
C         46.49337        48.06563        -0.94030
C         47.73205        50.16528        -0.83111
C         46.57538        50.84334        -0.50088
C         50.15144        24.60407         1.19385
C         48.95720        25.23500         0.93378
C         50.23539        27.38042         0.48359
C         48.92546        26.66679         0.74689
C         50.16096        28.87011         0.73730
C         48.91655        29.54263         0.54376
C         50.12422        31.68556         0.48864
C         48.90505        30.96207         0.37851
C         50.19799        33.09461        -0.03033
C         48.88190        33.82294        -0.04926
C         50.13071        35.97373        -0.12124
C         48.89505        35.21702        -0.27405
C         50.12972        37.39675        -0.31811
C         48.96268        38.07033        -0.72390
C         50.16953        40.24190        -0.74202
C         48.94587        39.49054        -0.87117
C         50.18958        41.65772        -1.00571
C         48.98705        42.35939        -1.23785
C         50.20719        44.47175        -1.53927
C         48.98068        43.76761        -1.33826
C         50.10907        45.90983        -1.80500
C         48.91314        46.62709        -1.48051
C         50.01668        48.76141        -1.99326
C         48.90313        48.05333        -1.49501
C         51.37134        25.34560         1.35562
C         52.66726        27.46214         1.38057
C         51.42602        26.68324         1.11031
C         52.58315        28.96090         1.37949
C         51.29865        29.62124         1.02567
C         52.45345        31.83422         1.44786
C         51.27730        31.04054         0.92526
C         52.47312        33.27756         1.00313
C         51.33849        33.90587         0.53074
C         52.46409        36.10451         0.68990
C         51.30790        35.33178         0.33588
C         52.44344        37.51521         0.50006
C         51.32857        38.15149        -0.05290
C         52.58218        40.29260        -0.29473
C         51.36443        39.57683        -0.36055
C         52.62379        41.68432        -0.58045
C         51.41866        42.38785        -0.96115
C         52.75268        44.41434        -1.35910
C         51.44803        43.76358        -1.35377
C         53.06749        45.59116        -2.07172
C         51.11661        46.66817        -2.43615
C         51.08719        48.06566        -2.53201
C         55.11325        27.61691         1.08759
C         53.99184        26.85773         1.13848
C         55.07624        29.06327         1.18220
C         53.83335        29.74009         1.23720
C         54.97769        31.89447         1.33474
C         53.78367        31.14218         1.26298
C         54.90537        33.34533         1.47346
C         53.67979        34.02520         1.23662
C         54.84002        36.20385         1.44235
C         53.64896        35.44786         1.14031
C         54.84912        37.60862         1.31212
C         53.59746        38.37645         0.95529
C         55.10547        40.29156         0.25066
C         53.85806        39.47469        -0.08642
C         55.07283        41.79643         0.07006
C         53.81714        42.43130        -0.36411
C         55.04436        44.57477        -0.41385
C         53.85304        43.81393        -0.66714
C         55.20840        45.84015        -0.98743
C         54.25274        46.31069        -1.89206
C         56.26258        29.82721         1.16509
C         56.21469        31.21002         1.25907
C         56.05831        34.10842         1.78218
C         56.02114        35.48523         1.79936
C         56.01198        38.39216         1.55895
C         56.12379        39.67962         1.10870
C         56.09355        42.67056         0.67892
C         56.08182        43.99679         0.41187
O         28.62300        41.96508         2.31949
O         35.88403        44.38114        -1.39598
O         44.54016        22.41459         1.39250
O         45.67665        27.06260         2.09835
O         29.64319        35.74963        -1.41252
O         52.55192        28.21488         2.65720
O         45.32584        36.49111        -2.48210
O         55.67290        40.88902        -0.96784
O         52.19095        46.03408        -3.07197
O         41.20731        30.17494         1.65693
O         47.96600        37.12504        -2.64791
H         47.09917        36.81293        -3.00965
O         42.87423        32.10568         2.01597
H         42.47530        31.35111         2.51126
O         43.73794        48.21626        -2.40417
H         43.82071        49.16982        -2.62160
O         54.11658        38.81856        -1.34741
H         54.64780        39.44638        -1.88925
O         41.31218        51.54104        -1.20810
H         41.09219        50.80667        -1.81872
O         38.90394        42.44085        -2.19609
H         38.10007        42.97087        -2.38826
O         39.27244        39.57032         1.59757
H         38.55324        39.03071         1.99097
O         43.60959        34.62711        -2.49131
H         43.94467        35.34526        -3.07881
O         47.43327        41.77773        -2.90074
H         46.67237        41.18828        -3.14083
O         32.60001        31.43690         1.55422
H         33.35665        31.85184         2.01922
O         52.24302        31.89604         2.90349
H         52.28401        30.97633         3.24518
O         37.44190        33.26193        -1.93598
H         38.16834        32.85507        -2.45273
O         50.46503        27.27516        -0.97725
H         50.45318        26.32022        -1.20191
O         31.35384        42.45138        -1.30180
H         32.11597        42.92089        -1.70459
O         27.72477        28.68535         1.44031
H         28.62734        28.52062         1.81188
O         32.77700        27.22739         1.58694
H         33.60247        27.63096         1.93217
O         45.13046        40.27931        -2.90897
H         44.29319        40.73951        -3.13440
O         53.17369        39.07426         2.16854
H         52.97080        38.39844         2.84877
O         47.56955        23.99921         2.40844
H         46.69543        23.56765         2.52305
O         31.76321        31.07152        -2.00071
H         31.02076        30.56215        -2.39969
O         38.05893        45.52973         2.09866
H         38.95649        45.16507         2.25474
O         46.85775        42.10765         0.71511
H         46.16096        42.55792         1.23758
O         41.93930        22.70293        -2.47936
H         41.17982        22.33411        -2.97938
O         30.35150        28.72953         1.56322
H         31.15027        28.21483         1.84943
O         50.54331        32.92414        -1.45970
H         50.52645        33.81442        -1.87292
O         29.25171        29.36928        -1.88921
H         28.44088        29.76387        -2.27624
O         39.17442        26.84555        -2.36001
H         38.37317        26.42066        -2.73481
O         42.12555        51.59309         2.36677
H         42.25678        52.34592         2.97926
O         31.85630        39.39529         2.31602
H         31.68928        40.28356         2.69837
O         36.88533        33.58920         1.67001
H         36.22365        34.11167         2.16951
H         26.96691        26.81475        -0.74980
H         25.70336        29.02963        -0.68677
H         25.74762        31.47776        -0.54538
H         25.75790        33.26190         0.51497
H         25.77628        35.67546         0.81701
H         25.73027        37.58843         0.39223
H         25.72628        40.01039         0.68818
H         25.69639        41.98841         0.76184
H         25.81695        44.42359         0.84668
H         27.07510        46.52394         1.07650
H         29.07665        25.64591        -1.00959
H         29.20174        47.75149         1.07615
H         32.85411        23.46331        -0.87213
H         30.74787        24.63917        -0.86549
H         32.99962        49.81070         1.39028
H         30.87812        48.64289         1.29753
H         34.49247        22.51380        -0.77986
H         34.66385        50.70831         1.46659
H         36.59334        21.31430        -0.86907
H         36.79012        51.87045         1.47914
H         40.40727        19.19309        -1.00286
H         38.26619        20.39087        -1.09545
H         40.55897        53.98546         1.39456
H         38.40976        52.84372         1.23196
H         42.87118        19.17783        -0.93563
H         43.02977        54.02381         0.79319
H         44.94342        20.33559        -0.28107
H         44.95251        52.90970        -0.23209
H         48.71053        22.71593        -0.09893
H         46.63199        21.49513        -0.57335
H         48.67811        50.72166        -0.87315
H         46.63369        51.91811        -0.28425
H         50.16670        23.52373         1.39267
H         50.00550        49.85774        -2.04105
H         52.25395        24.81463         1.74112
H         51.91472        48.58991        -3.02654
H         56.09169        27.13964         0.92721
H         54.05437        25.77148         0.97693
H         56.12669        46.41318        -0.79783
H         54.41872        47.23352        -2.46217
H         57.23330        29.31431         1.10518
H         57.15713        31.77404         1.27069
H         57.00177        33.60109         2.02507
H         56.93685        36.03279         2.05748
H         56.87281        37.94863         2.07938
H         57.06486        40.22363         1.26749
H         56.91762        42.22657         1.25286
H         56.88505        44.65145         0.78074
