         651
 CSIRO Nanostructure Databank - Neutral Graphene Oxide Data Set
C          5.79263        31.83581         1.80636
C          5.84454        33.19658         1.82794
C          8.18866        27.54491         1.04979
C          8.10594        28.79517         1.92657
C          6.88636        29.66477         1.78113
C          8.22227        31.63030         0.99580
C          6.95297        31.00495         1.55071
C          8.20829        33.16160         1.03535
C          7.04220        33.91954         1.47426
C          8.22148        36.05239         1.03075
C          7.07416        35.30507         1.45330
C          8.29118        37.42259         1.11735
C         10.64168        23.26110         0.03843
C         10.17918        24.45463         0.66390
C          9.34694        25.48676         0.24807
C         10.60549        27.38050         1.44752
C          9.31238        26.76955         0.96790
C         10.59565        28.78028         1.97290
C          9.37189        29.61983         1.90841
C         10.74581        31.67256         1.76651
C          9.45974        30.96585         1.64597
C         11.08647        32.83781         0.97411
C          9.22764        33.86003         0.46641
C         10.74398        35.95261         0.74983
C          9.37678        35.34833         0.35900
C         10.77198        37.34030         0.82001
C          9.52536        38.11536         0.84796
C         10.76485        40.23928         0.68547
C          9.54275        39.49912         0.77660
C         10.77663        41.64195         0.61248
C         13.25056        19.18393        -0.65084
C         13.15478        20.45663        -0.06837
C         11.99012        21.25753        -0.14018
C         13.02375        23.22884         0.98914
C         11.85323        22.58110         0.37664
C         13.07812        24.53589         1.46937
C         11.91204        25.29414         1.74357
C         13.10724        27.41925         1.95175
C         11.87299        26.67036         1.73744
C         13.02071        28.76685         2.50613
C         11.75228        29.19670         2.77539
C         13.05813        31.86636         2.65094
C         11.74382        31.30896         2.68033
C         12.96135        33.37133         2.48918
C         12.02998        33.75243         1.35075
C         13.29945        35.93781         1.06599
C         12.02401        35.16474         0.83840
C         13.27674        37.41594         1.08315
C         12.00883        38.10539         0.90496
C         13.26661        40.24323         0.78605
C         11.98690        39.49256         0.78431
C         13.27357        41.72969         0.62431
C         11.95015        42.45022         0.52763
C         12.85855        44.73908         0.08302
C         11.79312        43.84575         0.45849
C         13.11973        46.07609         0.27504
C         15.99857        15.15085        -1.96472
C         15.96411        16.62155        -1.63333
C         14.58949        17.21677        -1.39707
C         15.74205        19.12502        -0.43454
C         14.49120        18.45735        -0.79512
C         15.67893        20.46110         0.18577
C         14.36346        21.06144         0.53671
C         15.63481        23.23377         1.14866
C         14.31702        22.48965         1.01833
C         15.63201        24.69087         1.40187
C         14.32505        25.39554         1.26436
C         15.53237        27.32576         2.59003
C         14.30302        26.73849         1.92809
C         15.54826        28.84685         2.51648
C         14.25575        29.60681         2.57550
C         15.51893        31.74848         2.78063
C         14.26405        31.10660         2.80048
C         15.59824        33.21992         2.69667
C         14.31237        34.03129         2.44070
C         15.65027        35.99163         1.94228
C         14.44541        35.32142         1.78840
C         15.69555        37.41477         1.62643
C         14.44678        38.09802         1.32929
C         15.68252        40.31080         1.68155
C         14.33112        39.57730         1.64187
C         15.71103        41.81002         1.66250
C         14.49991        42.47306         1.09662
C         15.85316        44.52573         0.64471
C         14.73778        43.64157         0.43735
C         15.73087        45.96193         0.36377
C         14.44380        46.68166         0.01404
C         15.84737        48.76601        -0.39326
C         14.53508        48.00231        -0.31960
C         15.83664        49.98440        -1.27472
C         18.60777        11.10134        -3.09053
C         18.35281        12.20625        -2.18928
C         17.19782        13.10414        -2.57114
C         18.28813        14.87901        -1.01395
C         17.09963        14.39007        -1.77879
C         18.24241        16.26797        -0.43350
C         16.87639        16.97478        -0.44202
C         18.19710        19.17075        -0.12240
C         16.95139        18.47716        -0.39101
C         18.17331        20.57050         0.01625
C         16.87615        21.32570        -0.07251
C         18.06755        23.35633         0.64293
C         16.89395        22.62278         0.68269
C         18.04351        24.77490         1.06662
C         16.80059        25.37467         1.60434
C         18.03938        27.41760         2.29604
C         16.84388        26.74766         2.08765
C         18.10685        28.81293         2.69369
C         16.83016        29.50876         2.93024
C         18.11106        31.68030         2.69027
C         16.81733        31.03597         2.96994
C         18.03643        33.00598         1.97370
C         16.85901        33.88113         2.36141
C         18.17215        35.98522         2.43629
C         16.86426        35.25618         2.21611
C         18.13076        37.48725         2.11768
C         16.87401        38.11969         1.68103
C         18.17231        40.28106         1.00512
C         16.84471        39.50929         1.07897
C         18.23169        41.77486         1.10974
C         17.05746        42.58347         1.62593
C         18.31665        44.57524         0.70613
C         17.05414        43.94185         0.97068
C         18.31896        45.85178         0.11595
C         17.06619        46.62986         0.07844
C         18.30607        48.48931        -1.09360
C         16.97583        47.82101        -0.84576
C         18.29051        49.77449        -1.64456
C         17.02739        50.50627        -1.75302
C         18.23946        52.45171        -2.73704
C         17.06857        51.83157        -2.26808
C         18.13150        53.85925        -2.98283
C         21.20383         7.41515        -4.95570
C         21.06091         8.43123        -3.99565
C         19.91875         9.23226        -3.95911
C         20.88290        10.72568        -2.23768
C         19.80072        10.34743        -3.06659
C         20.82497        11.95133        -1.43698
C         19.55590        12.74950        -1.38784
C         20.76802        14.90511        -0.92751
C         19.60270        14.20190        -1.17358
C         20.70253        16.33617        -0.67386
C         19.52561        17.03609        -0.33133
C         20.56736        19.30288         0.37169
C         19.44173        18.45737         0.00852
C         20.62288        20.67596         0.00820
C         19.36613        21.35220        -0.00586
C         20.53678        23.57561         0.17569
C         19.29746        22.75981         0.21811
C         20.57741        24.82031         0.96203
C         19.31411        25.50130         1.27988
C         20.60892        27.42170         2.20920
C         19.32873        26.62860         2.27737
C         20.61767        28.75021         2.94678
C         19.30944        29.51786         2.80638
C         20.59250        31.70240         2.57291
C         19.31201        30.96803         2.71202
C         20.61511        33.06244         2.28894
C         19.36793        33.76206         1.88883
C         20.69934        35.98963         1.88035
C         19.38143        35.25777         1.84079
C         20.70403        37.46706         1.76663
C         19.40553        38.21064         1.85175
C         20.56464        40.32170         1.72800
C         19.43489        39.61649         1.36717
C         20.73398        41.76170         1.47001
C         19.54549        42.47154         1.23017
C         20.77505        44.44811         0.47126
C         19.54714        43.84758         0.86296
C         20.75489        45.72430        -0.18616
C         19.52694        46.43085        -0.36231
C         20.73336        48.32369        -1.41777
C         19.51401        47.74468        -0.96191
C         20.72486        49.63593        -1.98460
C         19.49920        50.37861        -2.12013
C         20.73479        52.19088        -3.19125
C         19.48116        51.66285        -2.74861
C         20.83775        53.38571        -3.95198
C         19.03702        54.59624        -3.78345
C         20.61388        56.43073        -4.43402
C         19.40408        55.93041        -3.75951
C         20.74194        57.89905        -4.61798
C         23.77999         5.16636        -6.50009
C         22.55096         5.76711        -6.22021
C         23.59404         7.09302        -4.44640
C         22.43820         6.73623        -5.18511
C         23.45869         7.98804        -3.27862
C         22.14058         8.65538        -3.00057
C         23.38540        10.73181        -2.15146
C         22.11381         9.86600        -2.04036
C         23.36681        12.10726        -1.76506
C         22.13348        12.67232        -1.11600
C         23.37746        14.87039        -0.73486
C         22.05236        14.12269        -0.54189
C         23.32137        16.35271        -0.51874
C         22.00608        17.05912        -0.61792
C         23.26572        19.28699        -0.82137
C         22.08893        18.44658        -1.21877
C         23.17039        20.78732        -0.81771
C         21.85820        21.43023        -0.40944
C         23.14076        23.65866         0.08282
C         21.86597        22.92092        -0.16002
C         22.98532        24.95358         0.60892
C         21.76028        25.46758         1.20087
C         23.07481        27.32930         2.43764
C         21.76729        26.77146         1.89965
C         23.07147        28.85972         2.46690
C         21.86315        29.55616         2.63382
C         23.10466        31.66548         2.61206
C         21.86068        30.97643         2.66424
C         23.14164        33.12704         2.80170
C         21.82586        33.87006         2.59993
C         23.10384        36.03938         2.55870
C         21.93129        35.32841         2.35726
C         23.11164        37.55740         2.84165
C         21.85584        38.23617         2.29018
C         23.45077        40.65785         2.39261
C         21.58957        39.56205         2.43340
C         23.30276        41.85775         1.62090
C         22.00434        42.44704         1.32783
C         23.21103        44.30812         0.16984
C         21.99921        43.73050         0.68453
C         23.16607        45.53176        -0.54788
C         21.96946        46.26967        -0.71196
C         23.14644        48.12662        -1.87659
C         21.95746        47.56789        -1.35510
C         23.18773        49.48715        -2.30182
C         21.96445        50.22975        -2.36187
C         23.20892        52.21474        -3.15910
C         21.97473        51.55046        -2.88016
C         23.21703        53.56917        -3.58688
C         21.98419        54.18363        -3.95552
C         23.20356        56.35789        -4.24914
C         21.92644        55.58450        -4.42972
C         23.21255        57.83200        -4.53866
C         21.93495        58.50934        -4.88682
C         23.22832        60.37982        -5.78158
C         22.02431        59.84781        -5.42879
C         24.92417         5.52488        -5.79527
C         26.01737         6.89248        -4.05585
C         24.86376         6.51068        -4.76248
C         26.00418         8.04625        -3.14367
C         24.69101         8.65718        -2.74627
C         25.79519        10.90173        -2.61591
C         24.61159        10.12687        -2.49599
C         25.74270        12.31196        -2.40362
C         24.52189        12.88886        -1.93291
C         25.53455        15.26985        -2.10842
C         24.56724        14.28890        -1.42798
C         25.76218        16.49440        -1.26198
C         24.63497        17.14628        -0.51731
C         25.67232        19.43164        -1.13795
C         24.46179        18.64182        -0.82392
C         25.68630        20.89091        -0.83539
C         24.42685        21.59546        -0.65570
C         25.68169        23.64833        -0.25780
C         24.40385        22.98841        -0.32103
C         25.87329        25.03007        -0.06662
C         24.03305        25.95267         0.62238
C         25.62320        27.32481         2.04710
C         24.24479        26.87013         1.60698
C         25.58096        28.80387         2.45815
C         24.30039        29.55281         2.41450
C         25.59083        31.71160         2.49658
C         24.33104        30.96632         2.50652
C         25.57427        33.15207         2.46207
C         24.39689        33.88587         2.58769
C         25.56742        36.07628         2.38837
C         24.37703        35.33411         2.57518
C         25.58661        37.50938         2.27853
C         24.42660        38.28383         2.44205
C         25.78182        40.40958         2.05260
C         24.50152        39.72552         2.27442
C         25.77454        41.80699         1.42422
C         24.48181        42.42221         1.06985
C         25.69720        44.18040        -0.17930
C         24.46167        43.61632         0.31713
C         25.68570        45.37390        -0.91857
C         24.37666        45.96187        -1.27060
C         25.65031        47.89623        -2.40695
C         24.34453        47.27778        -2.00596
C         25.66210        49.35809        -2.78062
C         24.40451        50.12473        -2.68740
C         25.69383        52.15270        -3.28655
C         24.44045        51.49130        -3.02109
C         25.69266        53.52424        -3.67618
C         24.46806        54.24212        -3.83050
C         25.71411        56.28204        -4.37928
C         24.48624        55.60612        -4.20403
C         25.78927        57.78566        -4.56885
C         24.48808        58.46030        -4.93849
C         24.46641        59.67219        -5.55913
C         27.16527         8.92617        -3.24645
C         28.19220        11.12658        -3.19059
C         27.05094        10.29244        -3.01281
C         28.12516        12.50373        -3.04224
C         26.90261        13.11853        -2.66109
C         28.17365        15.33734        -2.53964
C         26.83405        14.59193        -2.58831
C         28.23539        16.63622        -1.88617
C         27.06668        17.20609        -1.13617
C         28.24132        19.41130        -1.42734
C         26.92841        18.69747        -1.47402
C         28.22259        20.85677        -1.00807
C         26.91689        21.51834        -0.74467
C         28.27070        23.62424        -0.11081
C         26.95846        23.00787        -0.74969
C         28.12606        24.84539         0.74723
C         26.96967        25.62114         0.59707
C         28.11720        27.53986         1.72930
C         26.82807        27.05877         1.07551
C         28.12602        28.90894         2.15492
C         26.85232        29.58582         2.46060
C         28.09061        31.74763         2.53503
C         26.82353        31.05417         2.45487
C         28.12505        33.15358         2.48996
C         26.85098        33.84818         2.21381
C         28.14593        36.03348         2.33996
C         26.84101        35.34778         2.16352
C         28.16112        37.40866         2.08166
C         26.87321        38.13922         1.72736
C         28.19742        40.24642         1.43432
C         27.04925        39.60041         2.15494
C         28.20377        41.52164         0.90155
C         26.99471        42.29256         0.77063
C         28.15140        44.05054        -0.50481
C         26.95423        43.49101         0.02710
C         28.14772        45.32759        -1.09303
C         26.90002        46.00493        -1.32874
C         28.13132        47.95821        -2.22179
C         26.91409        47.27497        -1.97329
C         28.14640        49.34366        -2.62852
C         26.94803        50.07472        -2.79402
C         28.16361        52.16829        -3.33844
C         26.93385        51.46527        -3.11688
C         28.15155        53.48755        -3.74262
C         26.92673        54.20165        -3.91718
C         26.91264        55.57152        -4.26184
C         29.37746        13.29441        -3.38598
C         30.64213        15.20161        -2.32121
C         29.45729        14.62429        -2.68319
C         30.71341        16.55662        -1.80481
C         29.45650        17.25158        -1.64727
C         30.63613        19.24196        -0.79795
C         29.46712        18.62514        -1.21925
C         30.58360        20.58587        -0.25866
C         29.43532        21.34281        -0.32021
C         30.49045        23.21476         1.08121
C         29.28721        22.62426         0.40847
C         30.50237        24.66189         1.39580
C         29.33622        25.40646         1.32529
C         30.57038        27.48746         1.97572
C         29.28715        26.79552         1.71931
C         30.53106        28.82249         2.62560
C         29.29701        29.60042         2.46318
C         30.56401        31.69924         2.79650
C         29.31160        31.01030         2.66294
C         30.55501        33.12610         2.78348
C         29.35520        33.86067         2.63296
C         30.58271        36.04988         2.60727
C         29.36041        35.32459         2.55603
C         30.60469        37.43392         2.29048
C         29.38916        38.08645         1.98590
C         30.65508        40.24576         1.58561
C         29.42883        39.41001         1.26220
C         30.66009        41.48963         0.71631
C         29.46184        42.07406         0.39615
C         30.65775        44.08137        -0.54544
C         29.41655        43.23013        -0.56537
C         30.64389        45.32711        -1.12667
C         29.38286        45.97014        -1.46144
C         30.62879        47.96344        -2.20202
C         29.37549        47.28102        -1.96319
C         30.59562        49.32728        -2.63471
C         29.41376        50.01098        -2.79847
C         29.49303        51.48620        -3.12267
C         31.88585        17.18806        -1.39950
C         33.07176        19.14987        -0.42802
C         31.88999        18.51172        -0.84094
C         33.08603        20.44508         0.16474
C         31.75312        21.02506         0.60583
C         33.08016        23.23182         0.94166
C         31.78426        22.53689         0.73509
C         33.07739        24.54764         1.64890
C         31.77917        25.25740         1.84672
C         33.11204        27.36741         2.47590
C         31.85611        26.74529         1.96208
C         33.10599        28.78254         2.75153
C         31.83955        29.52695         2.91478
C         33.06426        31.67698         2.78421
C         31.80899        30.99788         2.88727
C         33.11501        33.09865         2.76032
C         31.84193        33.82359         2.98474
C         33.16233        36.01671         2.74060
C         31.84034        35.32807         2.93351
C         33.14869        37.45986         2.35479
C         31.87059        38.14398         2.03781
C         33.08576        39.89954         0.70306
C         31.89805        39.40340         1.49886
C         33.09916        41.38051         0.40030
C         31.92411        42.08690         0.33903
C         33.17112        44.04582        -0.66231
C         31.93493        43.57089         0.06514
C         33.11662        45.33187        -1.25980
C         31.90151        46.01461        -1.41554
C         31.84503        47.32239        -1.96093
C         34.28042        21.11303         0.43511
C         35.52557        23.15006         1.18342
C         34.35283        22.47042         0.90016
C         35.58546        24.54740         1.56453
C         34.32603        25.39622         1.50463
C         35.56809        27.25704         2.80619
C         34.29519        26.65027         2.37147
C         35.55616        28.74466         3.22720
C         34.31745        29.49972         2.76518
C         35.51360        31.60263         2.32790
C         34.27663        30.91620         2.71885
C         35.56042        33.07085         2.30450
C         34.35040        33.80846         2.54866
C         35.60946        35.90174         2.14335
C         34.39354        35.22657         2.48820
C         35.65157        37.30879         1.88068
C         34.43313        38.12139         1.96869
C         35.64158        39.96161         0.64663
C         34.40683        39.44825         1.27688
C         35.55459        41.24085         0.01628
C         34.36053        41.96745        -0.04132
C         34.33436        43.29058        -0.59483
C         36.77317        25.17353         1.81382
C         38.04052        27.36041         2.17630
C         36.84344        26.53302         2.40705
C         38.06796        28.70525         2.39617
C         36.93686        29.49192         3.04821
C         38.05720        31.60382         2.15343
C         36.80663        30.82855         2.31870
C         38.01623        32.95918         1.91424
C         36.78573        33.71910         2.07935
C         38.05178        35.84429         1.78557
C         36.82142        35.15244         2.00713
C         38.04847        37.18771         1.46212
C         36.83229        37.92879         1.41214
C         36.81524        39.24895         0.83392
C         39.27060        29.46433         2.12262
C         40.52714        31.57756         1.85259
C         39.29178        30.83976         2.07006
C         40.51695        32.89729         1.58196
C         39.24135        33.67438         1.38480
C         39.36334        35.10388         1.92548
O         12.98487        35.36168        -0.26623
O         26.27078        29.01380         3.74184
O         18.15541        41.13006        -0.20596
O         11.51538        30.29154         3.61559
O         26.84327        34.56330         0.90301
O         15.75740        41.04264         2.94166
O         36.02498        30.88659         1.09208
O         14.98432        22.58554         2.32416
O         25.43719         7.86608        -1.75806
O         34.53198        39.40118         2.72244
O         31.03375        28.87521         3.98562
O         21.52566        11.77972        -0.15711
O         21.09239        23.65171        -1.18417
O         18.12764        15.09831         0.44546
O         35.19374        28.78764         4.59214
O         31.81759        34.64123         4.22671
O         13.62468        40.82770        -0.49887
O         24.88928        25.91089        -0.47353
O         16.45326        46.74435         1.39970
O         29.48236        22.46544         1.86254
O         22.21756        21.23858        -1.82933
O         10.70917        24.62511         1.96587
O         28.40757        20.46851        -2.41392
O         25.63268        48.29499        -3.81790
O         32.41410        23.25071        -0.37595
O         27.34473        15.27011        -3.78272
O         19.32914        34.50578         0.59728
O         18.46995        12.01329        -0.75176
O         25.91292        41.61291         2.88955
O         22.61622        16.76111         0.70081
O         18.56792        25.72010         0.03759
O         19.73604        53.77818        -4.70265
O         22.52009         7.43604        -2.28139
O         16.78732        30.21445         4.19703
O         31.41178        27.44577         0.74075
O         23.16441        57.33303        -3.13999
O         10.27762        33.13735        -0.14164
O         28.90878        24.45138        -1.08146
O         14.91141        33.96172         3.77517
O         13.88993        44.04211        -0.58540
O         22.35136        33.55981         3.94675
O         21.38501        18.72700        -2.17460
O         10.99587        28.51008         0.56280
O         21.14840        55.76544        -5.63936
O         15.00457        29.36808         1.28218
O         26.05796        19.07708        -2.55218
O         32.45173        24.55030         2.95931
O         22.40725        40.33575         3.25765
O         24.12075        46.02048        -2.72967
O         36.32405        26.47009         3.78315
O         15.12180        20.26572         1.51818
O         24.50478        14.31352         0.03567
O         18.81227        38.23186         3.21492
O         33.27266        37.06394         3.77038
O         20.92194        36.67682         0.56717
O         39.05356        33.83460        -0.05905
H         38.92726        32.94155        -0.44398
O         16.55118        47.30132        -2.14277
H         17.31949        46.87378        -2.57587
O         27.54418        17.18589         0.25705
H         26.76073        17.05787         0.84803
O          8.02340        28.25522         3.29414
H          7.89521        29.00955         3.90769
O         17.69118        32.58667         0.61108
H         18.03702        33.28509         0.00462
O         24.80055        15.67776        -3.30594
H         25.46370        16.07341        -3.91930
O         16.16784        16.59330         0.75664
H         16.58554        15.76520         1.09521
O         25.87216        26.55380         3.25429
H         26.32459        27.17260         3.88419
O         13.75138        39.58938         2.97662
H         14.30792        40.18003         3.53843
O         16.41632        39.28175        -0.28943
H         16.74499        40.03135        -0.83914
O         32.97915        39.20783        -0.58483
H         32.09766        39.41785        -0.96396
O         16.12830        49.30119         0.92731
H         16.15404        48.53129         1.54808
O         23.17265        26.86791         3.81868
H         24.12805        26.65969         3.98100
O         25.03993        17.21576         0.90376
H         24.21147        17.16588         1.43870
O         32.00356        44.20390         1.39896
H         32.89751        44.02335         1.76092
O         30.52578        40.67351         2.96641
H         31.39368        41.01045         3.27178
O         18.40491        35.84071         3.86629
H         18.61848        36.73127         4.23426
O         17.41485        42.90652         2.99855
H         17.01795        42.21834         3.58172
O         40.41174        35.77197         1.22869
H         40.29376        35.55449         0.27809
O         21.89457        13.99872         0.88398
H         22.69387        13.54936         1.23387
O         29.39966        42.60039        -1.90677
H         29.30225        43.31888        -2.56817
O         14.24230        25.66133        -0.19714
H         14.76822        26.46912        -0.38579
O         20.71440        28.38493         4.36830
H         21.58485        27.92939         4.48646
O         30.34966        51.69856        -4.25743
H         29.94372        51.25817        -5.03205
O         17.37510        13.43686        -3.95828
H         16.72125        14.12415        -4.20203
O         26.60399        27.92562        -0.05985
H         27.18433        27.63284        -0.79375
O         26.82291        58.12484        -5.49850
H         26.57837        57.77011        -6.37743
O         23.04888        37.64247         4.29222
H         23.01264        38.59649         4.52674
O         21.52867        18.88286         1.22826
H         21.35795        17.96636         1.53413
O          9.26658        35.64332        -1.07449
H          9.98578        35.14931        -1.52508
O         34.31858        25.93500         0.14662
H         33.43152        26.31014        -0.04843
O         26.75647        38.12991         0.27242
H         26.59352        37.20279        -0.00851
O         27.40529        39.54802         3.55884
H         27.35643        40.46838         3.90213
O         12.31117        33.88283         3.70033
H         13.00584        33.89406         4.39956
O         31.50500        20.49504         1.93748
H         30.67542        20.91710         2.26687
O         15.46054        26.99234         4.00787
H         15.58526        26.02479         4.10568
O         37.40564        29.82628         4.36633
H         36.70113        29.46055         4.98047
O          8.27012        31.23582        -0.39881
H          9.08307        31.63567        -0.78386
O         19.38868        25.98816         3.59494
H         19.63453        26.69667         4.24025
O         29.50403        39.05712        -0.15361
H         28.61881        38.69459        -0.39949
O         16.52672        17.27716        -2.81601
H         15.80209        17.44865        -3.45264
O         26.99186        23.36000        -2.16033
H         27.79007        23.95228        -2.26583
O         30.54938        12.51354        -3.16095
H         30.61624        12.32054        -2.20352
O         16.70095        21.72212        -1.48554
H         17.52216        22.17782        -1.77357
O         22.05883         9.34955        -0.69457
H         22.39882         8.42242        -0.73092
H          4.85626        31.32370         2.07647
H          4.94766        33.77697         2.08938
H          7.24191        27.16253         0.63779
H          5.93449        29.23223         2.13184
H          6.18963        35.86583         1.79182
H          7.42807        38.00324         1.47676
H         10.02954        22.81557        -0.76241
H          8.73200        25.37707        -0.65825
H          8.59075        40.05021         0.80689
H          9.80467        42.15868         0.57178
H         12.33943        18.73268        -1.07481
H         11.11446        20.83010        -0.65433
H         10.78336        44.25673         0.61860
H         12.33303        46.74327         0.65837
H         15.18031        14.75050        -2.59002
H         13.69556        16.69644        -1.77531
H         13.60770        48.57706        -0.47153
H         14.91847        50.58942        -1.34040
H         17.88357        10.91931        -3.89710
H         16.23589        12.52311        -2.45497
H         16.13594        52.41600        -2.25652
H         17.27151        54.37905        -2.53296
H         20.35774         7.20539        -5.62705
H         19.09400         9.03054        -4.65750
H         18.90779        56.61805        -3.05997
H         19.80684        58.46498        -4.75326
H         23.84506         4.40816        -7.29297
H         21.65618         5.48935        -6.79490
H         23.27542        61.37882        -6.23701
H         21.09242        60.40349        -5.60717
H         25.88970         5.05324        -6.02605
H         26.98395         6.43080        -4.30701
H         26.11096        58.21548        -3.57758
H         25.41209        60.14149        -5.86632
H         28.11669         8.51627        -3.61621
H         29.14719        10.66757        -3.48496
H         29.10427        54.00489        -3.92719
H         27.86441        56.10248        -4.40887
H         29.34147        13.50557        -4.49184
H         31.57565        14.63449        -2.46001
H         31.54797        49.85449        -2.79282
H         30.00262        51.99705        -2.25784
H         32.84278        16.64874        -1.47352
H         34.03524        18.64503        -0.60350
H         34.04068        45.78023        -1.65578
H         32.78436        47.85603        -2.16941
H         35.22914        20.59560         0.21920
H         36.48161        22.60489         1.14057
H         36.47382        41.69826        -0.38067
H         35.26953        43.70291        -1.00492
H         37.71731        24.61059         1.73567
H         38.92130        26.86713         1.73422
H         39.00086        37.68246         1.22101
H         37.76289        39.65140         0.44480
H         40.20300        28.90672         1.94132
H         41.47823        31.02839         1.92414
H         41.45881        33.44126         1.41530
H         39.64027        35.07247         3.01295
