         236
 CSIRO Nanostructure Databank - Neutral Graphene Oxide Data Set
C        -11.13033         0.74991         0.49462
C         -9.91358         1.55140         0.41319
C         -8.58673         0.77889         0.54512
C         -7.31957         1.46311         0.03863
C         -6.34705         0.86885        -0.96703
C         -4.95163         1.50663        -0.83361
C         -3.80830         0.79189        -1.06564
C         -2.49822         1.49638        -1.12605
C         -1.26981         0.71154        -0.77444
C         -0.00189         1.44387        -0.53388
C          1.27793         0.79608        -0.97313
C          2.54593         1.49764        -0.65254
C          3.81470         0.73693        -0.60064
C          4.98464         1.49714        -0.39194
C          6.26103         0.79362        -0.16632
C          7.49547         1.52016        -0.64153
C          8.79681         0.74051        -0.45100
C         10.06793         1.48974        -0.19259
C         11.20750         0.72604         0.37298
C        -10.06101         2.91677         0.41436
C         -8.97496         3.85257         0.63674
C         -7.06817         2.73293         0.44625
C         -6.05402         3.58477        -0.12184
C         -4.90878         2.96657        -0.64324
C         -3.70800         3.73579        -0.80270
C         -2.43581         2.99787        -1.02416
C         -1.16805         3.63836        -0.56214
C         -0.00821         2.92810        -0.42642
C          1.21013         3.56153         0.12838
C          2.51095         2.80257         0.07947
C          3.77495         3.55090         0.18067
C          4.98189         2.90153        -0.08100
C          6.25859         3.62028         0.01474
C          7.50646         2.95995        -0.17011
C          8.71272         3.68081        -0.09232
C         10.07960         3.00754        -0.06988
C         -8.76355         5.12390         0.21371
C         -7.43070         5.74110         0.44355
C         -6.22781         5.04201        -0.15284
C         -4.97301         5.86772        -0.43602
C         -3.67585         5.13344        -0.62084
C         -2.39308         5.79253        -0.53254
C         -1.17884         5.06300        -0.28797
C         -0.01601         5.72227         0.15010
C          1.24302         5.03694         0.29794
C          2.42706         5.68327         0.60936
C          3.70105         4.92911         0.68216
C          5.01624         5.72363         0.62991
C          6.24553         5.01821         0.21553
C          7.44464         5.76910         0.08334
C          8.67245         5.08006        -0.01386
C         -7.31486         6.95059         1.03290
C         -5.97093         7.58409         1.31151
C         -4.99484         7.22421         0.19643
C         -4.07000         8.14971        -0.11642
C         -2.23356         7.21118        -0.63400
C         -1.20390         7.92344        -0.04940
C         -0.06429         7.15997         0.46709
C          1.19379         7.91133         0.82047
C          2.50281         7.14560         1.06266
C          3.73366         7.86365         0.53619
C          4.93698         7.18893         0.43139
C          6.16877         7.88907         0.12856
C          7.37544         7.20506         0.05059
C         -6.04042         9.10788         1.44848
C         -4.97574         9.90367         1.24562
C         -3.67332         9.23349         0.86082
C         -2.45857        10.02665         0.43371
C         -1.26123         9.37130         0.18347
C          0.02570        10.03788         0.22868
C          1.21081         9.35282         0.45008
C          2.48033         9.99280         0.30748
C          3.68409         9.29089         0.31820
C          4.92048         9.98437         0.05134
C          6.10821         9.32020        -0.02937
C        -11.16311        -0.60317         0.45444
C         -9.97357        -1.37319         0.04357
C         -8.68553        -0.61534        -0.06645
C         -7.38937        -1.40584        -0.09867
C         -6.32010        -0.66786        -0.91382
C         -5.05525        -1.45688        -1.12128
C         -3.78301        -0.68329        -1.31179
C         -2.49090        -1.44569        -1.27933
C         -1.19220        -0.73337        -1.11354
C         -0.01276        -1.39846        -1.16675
C          1.31254        -0.68181        -1.37902
C          2.56302        -1.41144        -0.87425
C          3.78922        -0.66928        -0.71362
C          5.09658        -1.42786        -0.75741
C          6.25905        -0.67741        -0.15167
C          7.55523        -1.38751        -0.08155
C          8.73912        -0.70725        -0.08947
C          9.96938        -1.40611         0.27387
C         11.17118        -0.62268         0.50009
C         -9.89901        -2.82955         0.23298
C         -8.73088        -3.53506         0.03390
C         -7.56908        -2.84062        -0.66205
C         -6.23719        -3.57084        -0.53807
C         -5.03521        -2.88441        -0.70435
C         -3.72735        -3.57485        -0.35928
C         -2.47952        -2.88866        -0.92179
C         -1.29506        -3.54694        -0.93374
C          0.01509        -2.90092        -1.35851
C          1.23205        -3.48147        -0.61723
C          2.54409        -2.78936        -0.77710
C          3.81540        -3.62013        -0.74189
C          5.03426        -2.85703        -0.28352
C          6.19211        -3.51655         0.11731
C          7.43689        -2.75111         0.54595
C          8.72347        -3.53516         0.46952
C          9.94662        -2.77398         0.48086
C         -8.63260        -4.92235         0.33778
C         -7.44169        -5.63436         0.14154
C         -6.26489        -4.96963        -0.30466
C         -5.06912        -5.80006        -0.68697
C         -3.79124        -5.02286        -0.78081
C         -2.53487        -5.75888        -0.88394
C         -1.31111        -4.97598        -0.52566
C         -0.06625        -5.68224        -0.12507
C          1.21632        -4.89670        -0.12588
C          2.49121        -5.65247        -0.02535
C          3.68321        -4.97500        -0.08698
C          4.91476        -5.67355         0.42710
C          6.21200        -4.92897         0.28392
C          7.43421        -5.64091         0.51675
C          8.68570        -4.90192         0.56590
C         -7.36233        -7.03905         0.51142
C         -6.17636        -7.70999         0.58909
C         -4.87339        -6.98797         0.31051
C         -3.78584        -7.91451        -0.21268
C         -2.47897        -7.24913        -0.54953
C         -1.21713        -7.87375        -0.06864
C         -0.02882        -7.16580        -0.05013
C          1.24072        -7.82020         0.15603
C          2.44106        -7.09854         0.11328
C          3.69276        -7.84727        -0.07375
C          4.99117        -7.10765        -0.05868
C          6.27800        -7.83958         0.23321
C          7.43781        -7.03291         0.64085
C         -6.08897        -9.07053         1.09473
C         -4.94795        -9.80027         1.04690
C         -3.75496        -9.31987         0.31530
C         -2.45277        -9.95805         0.51030
C         -1.24010        -9.27478         0.33174
C         -0.00484        -9.91060         0.60561
C          1.24179        -9.24821         0.45352
C          2.44512        -9.92757         0.69734
C          3.70854        -9.35812         0.26091
C          5.01176        -9.94502         0.64694
C          6.18010        -9.27029         0.59408
O          1.09145        -3.76692         0.81744
O          1.47208        -0.72632        -2.83328
H          1.85968         0.14370        -3.10171
O         -3.25684         7.94753        -1.24443
O         -3.59848        -3.52331         1.10843
H         -2.75742        -3.97386         1.35523
O          0.20468        -3.19954        -2.76091
H          0.70619        -2.45165        -3.16501
O         -5.38075        -6.43095        -1.95159
H         -5.47349        -5.73085        -2.63106
O          1.93787         1.62567        -1.99952
O         -0.73789         0.86563         0.60197
O         -5.50190         7.04429         2.57207
H         -4.64107         7.49461         2.76230
O          0.23484         7.56334         1.88088
O         -9.46423        -0.79232        -1.26877
O          4.06776        -3.94017        -2.15970
H          4.52774        -3.15862        -2.55390
O          7.26291         1.58259        -2.08530
H          8.15391         1.65522        -2.50335
O         -6.02420        -1.21481        -2.21657
O          9.73036         1.03643        -1.55973
O          1.71602         2.81454         1.30645
O         -2.31438         2.32108        -2.32795
O         -5.94700         5.61041        -1.48703
O          5.85555        -7.43518        -1.15209
O         -3.24776         8.52524         2.09282
H         -2.30486         8.26301         1.99567
O         10.91034         3.53679        -1.11241
H         10.71049         3.03029        -1.92868
O         -3.11600        -1.08880        -2.56266
O         -2.38681        -6.77369        -1.93295
O         -4.36560        -6.47416         1.55697
H         -4.97046        -5.77570         1.88592
O          2.69201         7.11025         2.50131
H          1.80702         6.93171         2.89476
O         -1.00899        -5.15331         0.90788
O         -4.14124        -8.97197        -1.11261
O          5.44918        -1.51668        -2.19822
H          5.49457        -0.60185        -2.55433
O         -7.91633         3.29722         1.41287
O         -8.41034         0.57053         1.98431
H         -8.26592         1.46562         2.37303
O         -6.82933         1.23529        -2.27947
H         -6.45996         0.57725        -2.91368
O         -6.88974        -1.55158         1.24724
H         -7.26440        -0.82756         1.80861
O         -7.91280        -2.82918        -2.05812
H         -8.59671        -2.12665        -2.18931
O          7.23677        -2.48880         1.98067
H          6.73736        -1.64466         2.06791
O          4.71163        -5.82675         1.88093
H          4.68171        -4.92989         2.27809
O          6.14777         0.07472         1.13220
O          4.48973         5.20457         1.88850
O          3.63473        -8.84842        -1.11792
H         12.05961        -1.15578         0.87121
H         12.11792         1.28380         0.63725
H         10.56967         3.27772         0.90429
H          9.61421         5.64679        -0.03440
H          8.30625         7.77094        -0.10346
H          7.04039         9.86660        -0.23357
H          4.88402        11.07465        -0.08903
H          2.49755        11.07239         0.09381
H          0.06037        11.12750         0.07578
H         -2.43450        11.10808         0.64079
H         -5.03221        10.99353         1.38865
H         -6.99684         9.54462         1.77736
H         -8.21672         7.45942         1.40790
H         -9.53762         5.68946        -0.32561
H        -11.07443         3.32750         0.27129
H        -12.06519         1.29961         0.68635
H        -12.10661        -1.14265         0.62321
H        -10.77567        -3.33319         0.66865
H         -9.51044        -5.44182         0.75127
H         -8.29739        -7.55081         0.78713
H         -6.99254        -9.49899         1.55546
H         -4.91441       -10.80711         1.48940
H         -2.42893       -10.97409         0.93311
H         -0.00767       -10.97562         0.88135
H          2.42776       -10.92500         1.16123
H          5.00538       -10.98616         1.00510
H          7.10451        -9.76898         0.92476
H          8.37114        -7.55052         0.91088
H          9.62376        -5.47621         0.61747
H         10.89230        -3.30516         0.67185
