         404
 CSIRO Nanostructure Databank - Neutral Graphene Oxide Data Set
C          1.34358         3.24135         0.46446
C          0.13586         3.92098         0.39606
C          1.20530         6.11548         0.63221
C          0.05921         5.32860         0.44637
C          1.19506         7.54949         0.61318
C         -0.01796         8.30183         0.80845
C          1.06526        10.46840         0.27509
C         -0.07730         9.66321         0.74396
C          1.11507        11.94622         0.48912
C         -0.07403        12.67778         0.55447
C          1.08036        14.82871         0.60961
C         -0.08849        14.09315         0.55399
C          1.11088        16.27386         0.50806
C         -0.10142        17.02740         0.74544
C          1.01153        19.15990         0.23662
C         -0.13668        18.38309         0.71772
C          1.07302        20.62403         0.47416
C         -0.06347        21.38626         0.61083
C          1.09988        23.53037         0.31541
C         -0.05453        22.81089         0.55243
C          1.13154        24.98167         0.15134
C         -0.06731        25.73626         0.32966
C          1.13043        27.84856         0.05542
C         -0.06637        27.10731         0.26667
C          1.08216        29.27252        -0.03506
C         -0.09320        30.05422        -0.03073
C          1.09664        32.19512        -0.34081
C         -0.07603        31.45378        -0.09054
C          1.15571        33.62037        -0.49902
C         -0.02366        34.40028        -0.62433
C          1.25661        36.47453        -0.65160
C          0.02431        35.77901        -0.72691
C          1.31168        37.90970        -0.73303
C          3.81314         3.31882         0.57250
C          2.57125         3.94761         0.62655
C          3.78728         6.20961         0.66492
C          2.48245         5.40650         0.83345
C          3.64076         7.61907         0.29528
C          2.41798         8.26840         0.38787
C          3.63242        10.50278         0.20980
C          2.37183         9.72789         0.10076
C          3.59583        11.93069         0.38892
C          2.36516        12.62668         0.51619
C          3.58128        14.85068         0.38833
C          2.37162        14.10492         0.88446
C          3.57920        16.23076         0.21810
C          2.31845        16.94900         0.29186
C          3.61163        19.14726         0.06558
C          2.32478        18.40102         0.04439
C          3.62444        20.53176         0.10277
C          2.38660        21.27753         0.45655
C          3.57631        23.42942        -0.25414
C          2.37945        22.80182         0.35959
C          3.56688        24.93174        -0.44086
C          2.33162        25.67606        -0.09126
C          3.61050        27.77484        -0.29798
C          2.37005        27.11231        -0.10332
C          3.64707        29.24023        -0.20141
C          2.35427        30.00411        -0.07956
C          3.67480        32.16625        -0.56437
C          2.33136        31.42970        -0.53075
C          3.65741        33.61113        -0.36861
C          2.42765        34.30739        -0.46685
C          3.70531        36.42360        -0.31509
C          2.45646        35.73774        -0.48667
C          3.73568        37.87661        -0.40031
C          2.49838        38.57758        -0.63140
C          6.27296         3.37400         0.22580
C          5.04913         4.04448         0.43408
C          6.18829         6.17065        -0.02073
C          5.01954         5.47032         0.34806
C          6.13719         7.64056        -0.24086
C          4.83925         8.36783        -0.12583
C          6.09407        10.51721         0.20224
C          4.84308         9.82760         0.12390
C          6.07098        11.95044         0.28680
C          4.85014        12.63064         0.42327
C          6.11830        14.83985         0.28792
C          4.84715        14.10204         0.52051
C          6.04647        16.19914        -0.37488
C          4.80410        16.98392        -0.02029
C          6.10486        19.09972        -0.11121
C          4.83615        18.37823        -0.05210
C          6.11889        20.55234        -0.11268
C          4.85966        21.28848        -0.07726
C          6.05825        23.43780        -0.56870
C          4.84656        22.67480        -0.21175
C          6.08099        24.92720        -0.44749
C          4.86379        25.64295        -0.45194
C          6.11085        27.74723        -0.45349
C          4.86151        27.06488        -0.42437
C          6.15546        29.20524        -0.64729
C          4.86609        29.98093        -0.64775
C          6.12045        32.09871        -0.13881
C          4.91934        31.42693        -0.37027
C          6.09358        33.51740         0.07672
C          4.88833        34.27288        -0.08635
C          6.09590        36.45711         0.33788
C          4.87521        35.70803        -0.03730
C          6.16977        37.90147        -0.00106
C          4.93476        38.56609        -0.30664
C          8.65891         3.40634        -0.45808
C          7.46854         4.07554        -0.11414
C          8.58450         6.30711        -0.70412
C          7.39753         5.50552        -0.22358
C          8.58083         7.69181        -0.09955
C          7.39504         8.38784        -0.01214
C          8.55389        10.55297         0.23267
C          7.32849         9.81491         0.20308
C          8.56180        11.93322         0.11711
C          7.32779        12.67744         0.16740
C          8.62789        14.83113         0.23994
C          7.34982        14.05981         0.08981
C          8.54614        16.26482        -0.21549
C          7.35270        16.95454        -0.24676
C          8.59009        19.08756        -0.01895
C          7.30923        18.39321        -0.21314
C          8.61084        20.59905         0.03751
C          7.32354        21.25706        -0.17124
C          8.64332        23.41142        -0.38423
C          7.36605        22.68004        -0.52103
C          8.59438        24.87985        -0.04037
C          7.31251        25.61083        -0.36944
C          8.58814        27.76830        -0.36240
C          7.33894        27.03881        -0.37977
C          8.60636        29.20411        -0.34888
C          7.39443        29.94751        -0.37988
C          8.62508        32.02998        -0.08332
C          7.38684        31.35135        -0.18480
C          8.65656        33.45294         0.31173
C          7.34332        34.19036         0.47484
C          8.68943        36.39949         0.51675
C          7.36601        35.68917         0.59296
C          8.66146        37.92350         0.27102
C          7.36818        38.57174         0.00579
C         11.09730         3.39939        -0.40738
C          9.89142         4.12149        -0.93586
C         11.08370         6.24802        -0.35068
C          9.89823         5.58456        -0.55156
C         11.12688         7.64529        -0.01532
C          9.85050         8.32392         0.27114
C         11.09904        10.56628         0.22313
C          9.83233         9.84286         0.40757
C         11.11557        11.91906        -0.02884
C          9.82900        12.62519        -0.20740
C         11.13351        14.83328        -0.25280
C          9.84039        14.11369        -0.30349
C         11.12716        16.23012        -0.31425
C          9.83603        16.93139        -0.48595
C         11.12989        19.14667        -0.25202
C          9.84977        18.43603        -0.45317
C         11.10248        20.59510        -0.25691
C          9.88469        21.28806        -0.27249
C         11.11433        23.43391        -0.63844
C          9.83599        22.72099        -0.39891
C         11.10214        24.94161        -0.63025
C          9.83543        25.64565        -0.39846
C         11.09489        27.73963        -0.42586
C          9.83579        27.04101        -0.37496
C         11.08974        29.19242        -0.58771
C          9.83393        29.92421        -0.37610
C         11.11021        32.05392        -0.18290
C          9.84980        31.32748        -0.24347
C         11.07132        33.49394        -0.15791
C          9.90371        34.21753         0.05845
C         11.06245        36.39120        -0.17870
C          9.90613        35.66461         0.09566
C         11.08485        37.84282        -0.25807
C          9.88275        38.55383        -0.21602
C         13.50243         3.37989         0.06861
C         12.30274         4.05908        -0.22179
C         13.61274         6.21883        -0.09630
C         12.38342         5.51675        -0.62855
C         13.58673         7.64720         0.08031
C         12.34218         8.33069         0.15159
C         13.63547        10.55430         0.19999
C         12.34093         9.79359         0.41446
C         13.58101        11.98992        -0.13234
C         12.35071        12.67139        -0.13864
C         13.58160        14.81885        -0.36893
C         12.34963        14.10208        -0.26512
C         13.58158        16.24919        -0.32270
C         12.34659        16.96948        -0.27469
C         13.57663        19.15486        -0.00918
C         12.31171        18.41843        -0.21181
C         13.59572        20.61462        -0.21927
C         12.36952        21.31472        -0.31304
C         13.60851        23.44263        -0.43299
C         12.39165        22.72511        -0.43141
C         13.59041        24.90642        -0.34857
C         12.36746        25.64318        -0.38681
C         13.55801        27.80704        -0.07638
C         12.33385        27.06631        -0.32223
C         13.61579        29.19497        -0.05215
C         12.41129        29.95118        -0.43727
C         13.59706        32.09864        -0.02484
C         12.34677        31.39639        -0.17645
C         13.60548        33.50346        -0.18444
C         12.33088        34.18250        -0.47514
C         13.58886        36.40184        -0.40185
C         12.30925        35.69393        -0.53163
C         13.56617        37.83215        -0.47720
C         12.31923        38.51001        -0.49638
C         15.95031         3.32146         0.11674
C         14.76730         4.04836         0.08409
C         16.01857         6.24491         0.60090
C         14.77923         5.50866         0.10714
C         16.06567         7.67079         0.09876
C         14.83856         8.37185         0.08758
C         16.04838        10.45502        -0.37816
C         14.85847         9.78360        -0.07859
C         15.99751        11.89522        -0.71258
C         14.78004        12.67519        -0.44133
C         16.05970        14.79501        -0.63581
C         14.80465        14.08711        -0.51997
C         16.03207        16.23283        -0.58123
C         14.84756        16.93427        -0.39167
C         16.08146        19.18787        -0.45579
C         14.88109        18.39617        -0.13677
C         16.06985        20.56025        -0.42999
C         14.82761        21.30489        -0.32074
C         16.10838        23.43542        -0.40777
C         14.84447        22.73049        -0.41202
C         16.07470        24.91969        -0.34599
C         14.78717        25.59042        -0.12327
C         16.04614        27.76981         0.49110
C         14.75844        27.01682         0.23918
C         16.02716        29.24389         0.45149
C         14.84127        29.93065         0.23827
C         16.02129        32.13668         0.33912
C         14.83135        31.39616         0.18508
C         16.02798        33.55923         0.16627
C         14.80652        34.24264        -0.12247
C         16.02665        36.40335        -0.26105
C         14.79495        35.68464        -0.28649
C         16.02165        37.82969        -0.45950
C         14.79393        38.52325        -0.55858
C         18.43939         3.32847        -0.44908
C         17.26751         3.97639         0.16214
C         18.51805         6.19556        -0.11993
C         17.31876         5.47680         0.35929
C         18.52652         7.61052        -0.21940
C         17.27951         8.35009        -0.13670
C         18.53378        10.47148        -0.53183
C         17.28062         9.75220        -0.41173
C         18.56301        11.89553        -0.59254
C         17.31906        12.65126        -0.83237
C         18.55102        14.80243        -0.53085
C         17.29165        14.11164        -0.67104
C         18.57475        16.22352        -0.52261
C         17.31335        16.95245        -0.77394
C         18.60022        19.14680        -0.43433
C         17.33400        18.45231        -0.75814
C         18.58324        20.55001        -0.33537
C         17.34634        21.29716        -0.79497
C         18.57424        23.43561        -0.16293
C         17.32825        22.76567        -0.41761
C         18.70388        24.95398        -0.27979
C         17.36137        25.69338        -0.23403
C         18.48172        27.68298         0.79912
C         17.33853        27.07440         0.30575
C         18.41979        29.07321         1.22589
C         17.33067        29.93289         0.64063
C         18.41369        32.32197         1.14461
C         17.31911        31.45099         0.60654
C         18.45266        33.68607         0.72141
C         17.24898        34.31090         0.23948
C         18.47063        36.46379         0.03815
C         17.24805        35.71738        -0.00767
C         18.47185        37.86158        -0.28461
C         17.25076        38.52412        -0.52417
C         19.59261         4.01699        -0.63384
C         20.87142         6.14996        -0.74316
C         19.67268         5.45417        -0.45221
C         20.91611         7.53214        -0.70399
C         19.74371         8.29411        -0.47102
C         20.96882        10.47719        -0.41741
C         19.75877         9.74956        -0.48029
C         20.97686        11.86065        -0.36677
C         19.77536        12.60593        -0.45916
C         20.96710        14.80111        -0.27394
C         19.77078        14.06977        -0.42667
C         20.97214        16.18654        -0.20409
C         19.77857        16.93445        -0.32749
C         20.94599        19.11344         0.13527
C         19.78261        18.39892        -0.21961
C         20.92897        20.49404         0.26397
C         19.75855        21.24647         0.01478
C         20.91266        23.39987         0.55567
C         19.74137        22.70669         0.09728
C         20.88679        24.73007         0.89771
C         19.74581        25.54292         0.64615
C         20.68004        27.44595         1.91447
C         19.66921        26.87867         1.06872
C         20.51562        28.68571         2.46491
C         19.40185        29.50471         2.09297
C         20.57465        32.68412         2.25897
C         19.44325        31.89123         1.98814
C         20.70011        33.92884         1.66550
C         19.62870        34.46852         0.92427
C         20.87932        36.57896         0.41464
C         19.68112        35.83954         0.44276
C         20.88730        37.92435         0.02015
C         19.70486        38.57040        -0.30457
O          8.03628        33.61438         1.64302
O         16.71187        25.57945        -1.55435
O         13.13201        10.24646         1.55712
O         14.31935        18.72748         1.18962
O          9.83190         8.97521         1.59073
O          1.55008        10.07842        -1.06401
O          1.47486        18.78575        -1.10511
O          9.67452        13.33533        -1.51852
O          3.33710        24.00787        -1.58037
O          8.87000        37.32395         1.61459
O          3.19838        29.76837         1.10688
O         19.35281        30.72612         2.75347
O          6.69280        22.97180        -1.81287
O         12.26151        34.88469        -1.76840
O         11.09560        24.16234        -1.91821
O          2.98299        31.69638        -1.80316
O         17.33500        17.74081        -2.04695
O          2.64071        22.14700         1.63220
O         11.87194        29.62136        -1.76240
O          9.76258        17.74361        -1.72950
O          6.54496        36.14190         1.70793
O         16.58407        12.18856        -2.02365
O          3.23849         5.88735         1.98829
O          5.39467         8.00501        -1.46577
O          8.69802        19.77548         1.26269
O          5.63599        14.70348         1.67068
O         15.26911        27.21354         1.63204
O         17.77460        30.66253        -0.56911
O          5.45706        29.59236        -1.91534
O         17.60865         4.58229         1.48939
O          2.50821        14.12023         2.36466
H          3.46077        14.00015         2.57482
O          8.40608         6.47322        -2.16520
H          7.52994         6.89675        -2.30899
O          9.95402         4.10658        -2.41993
H          9.31389         4.79394        -2.72822
O         17.40958        21.29978        -2.25991
H         17.45928        20.36612        -2.55999
O         15.84905         6.36285         2.04535
H         16.31658         5.58607         2.43717
O         19.24661        25.17728        -1.61659
H         18.48022        25.13180        -2.23575
O          8.86999        14.90751         1.68958
H          8.01909        15.13234         2.12691
O         12.51720         5.51628        -2.08581
H         11.73890         5.01619        -2.44098
O          8.60840        24.85220         1.46048
H          8.51347        25.78019         1.76779
O          5.91990        15.87938        -1.79976
H          5.97156        16.71601        -2.30874
H          1.36655         2.14706         0.36059
H         -0.79213         3.34978         0.25247
H         -0.91996         5.80923         0.31270
H         -0.91958         7.75286         1.11758
H         -1.00441        10.17430         1.04121
H         -1.03698        12.15157         0.49873
H         -1.05918        14.59491         0.43588
H         -0.99341        16.48365         1.08589
H         -1.03170        18.91266         1.07302
H         -1.04448        20.89286         0.65772
H         -1.02947        23.31445         0.58944
H         -1.01599        25.21825         0.51912
H         -1.01533        27.64263         0.40272
H         -1.07193        29.56280         0.05650
H         -1.03431        31.98276         0.01025
H         -0.99921        33.89673        -0.66812
H         -0.90632        36.35166        -0.84949
H          0.37386        38.46339        -0.88591
H          3.84807         2.22142         0.49365
H          2.52656        39.67461        -0.70324
H          6.29740         2.27488         0.27316
H          4.94666        39.65744        -0.44635
H          8.66848         2.30574        -0.45830
H          7.38606        39.63483        -0.28038
H         11.03100         2.31542        -0.22663
H          9.86398        39.61766        -0.49521
H         13.48042         2.29048         0.22602
H         12.31281        39.60488        -0.60060
H         15.91304         2.22309         0.06442
H         14.79798        39.61704        -0.67193
H         18.36934         2.26542        -0.72277
H         17.25020        39.60648        -0.72003
H         20.48030         3.50546        -1.03510
H         21.77640         5.57777        -0.99287
H         21.86669         8.03993        -0.91611
H         21.92672         9.94298        -0.36013
H         21.94238        12.37453        -0.27363
H         21.92792        14.27615        -0.19470
H         21.93407        16.69827        -0.07012
H         21.88846        18.58303         0.32404
H         21.86508        20.99472         0.54165
H         21.83685        22.83891         0.74236
H         21.77974        25.16316         1.36810
H         21.57812        26.86674         2.16345
H         21.26331        29.10196         3.15250
H         21.35424        32.29475         2.92600
H         21.60326        34.52433         1.85135
H         21.83045        36.10358         0.68938
H         21.83877        38.47355        -0.00597
H         19.70669        39.63610        -0.57396
