         424
 CSIRO Nanostructure Databank - Neutral Graphene Oxide Data Set
C          1.13436         2.14300         0.14043
C          1.16058         3.50384        -0.17029
C          2.30768         1.45353         0.42933
C          2.38349         4.22242        -0.21436
C          1.23283         6.42949        -0.59256
C          1.26369         7.72361        -0.99357
C          2.42989         5.62619        -0.51388
C          2.52371         8.33191        -1.55732
C          1.37778        10.55345        -1.80627
C          1.36788        11.95212        -1.85251
C          2.54224         9.84491        -1.51924
C          2.54052        12.69353        -1.66277
C          1.34186        14.89061        -1.85926
C          1.34974        16.27849        -1.90123
C          2.53603        14.14942        -1.70849
C          2.55806        16.99848        -1.80379
C          2.58174        18.43368        -1.83902
C          3.55959         2.12459         0.39948
C          3.59933         3.51740         0.05172
C          4.75502         1.43926         0.71217
C          4.85491         4.19892         0.00056
C          3.68938         6.29100        -0.62934
C          3.75105         7.68586        -0.96439
C          4.88686         5.56802        -0.37196
C          4.95580         8.42222        -0.84623
C          3.75930        10.55757        -1.32878
C          3.76848        11.98874        -1.43380
C          4.97375         9.85519        -1.04318
C          4.99955        12.69921        -1.34069
C          3.76649        14.85285        -1.59884
C          3.78246        16.27978        -1.66057
C          5.00337        14.14026        -1.45045
C          5.01310        16.99347        -1.56316
C          3.75650        19.12196        -1.72044
C          5.00969        18.43092        -1.56998
C          6.00448         2.10299         0.72175
C          6.05705         3.49969         0.36995
C          7.20486         1.41835         1.01205
C          7.29487         4.17911         0.47274
C          6.16310         6.28869        -0.44691
C          6.16525         7.75922        -0.51101
C          7.39811         5.58666         0.03751
C          7.39286         8.46261        -0.37086
C          6.19582        10.56447        -0.91987
C          6.21547        11.98852        -1.10451
C          7.41416         9.88274        -0.60094
C          7.45890        12.67913        -1.05481
C          6.21472        14.85560        -1.43339
C          6.24097        16.28224        -1.45738
C          7.47920        14.10446        -1.42099
C          7.46867        17.01020        -1.28958
C          6.20771        19.13065        -1.41082
C          7.44337        18.44888        -1.23596
C          8.46349         2.08180         0.98484
C          8.47915         3.52711         0.84028
C          9.67076         1.37829         0.96011
C          9.72623         4.27302         0.95313
C          8.48632         6.41950         0.66836
C          8.58366         7.79758         0.04752
C          9.77879         5.63146         0.79463
C          9.77083         8.52760         0.24870
C          8.62459        10.61065        -0.43812
C          8.65453        12.02454        -0.69610
C          9.80343         9.94679         0.01794
C          9.88685        12.76032        -0.50675
C          8.77399        14.87550        -1.24814
C          8.70189        16.33999        -1.09737
C          9.93974        14.16596        -0.69818
C          9.88466        17.04634        -0.81334
C          8.63922        19.15849        -1.00956
C          9.86656        18.48857        -0.79387
C         10.91044         2.13468         0.57951
C         10.94921         3.45734         1.35473
C         12.19315         1.36710         0.66199
C         12.25543         4.20510         1.20242
C         11.09415         6.38052         0.75304
C         10.88468         7.89617         0.90710
C         12.19305         5.67317         1.62195
C         11.86045         8.75524         1.38866
C         10.99587        10.69350         0.26276
C         11.04596        12.09250        -0.01963
C         12.11215        10.06767         0.89035
C         12.25953        12.80060         0.23289
C         11.10719        14.89763        -0.40779
C         11.11633        16.34369        -0.56189
C         12.28606        14.21289         0.01880
C         12.30785        17.06122        -0.42475
C         11.07024        19.19475        -0.58821
C         12.31355        18.51634        -0.46181
C         13.39291         2.05447         0.65971
C         13.40483         3.51638         0.86554
C         14.63334         1.36785         0.50016
C         14.68777         4.17509         0.76039
C         13.54877         6.34371         1.49265
C         13.72221         7.67769         1.76484
C         14.75471         5.58136         1.17826
C         14.81072         8.51783         1.33138
C         13.41625        10.68814         0.94439
C         13.45314        12.08991         0.61714
C         14.67836         9.97820         1.14132
C         14.68539        12.81131         0.63304
C         13.51664        14.93114         0.14034
C         13.55125        16.37006        -0.15334
C         14.68752        14.21974         0.42130
C         14.73694        17.07235        -0.14683
C         13.51372        19.22343        -0.35708
C         14.83489        18.53239        -0.52315
C         15.86579         2.04382         0.39293
C         15.86822         3.49903         0.46526
C         17.08713         1.35948         0.25801
C         17.12655         4.20087         0.32251
C         16.02042         6.35798         0.98319
C         15.98062         7.83736         0.97570
C         17.11163         5.70572         0.15970
C         17.21273         8.51717         0.77081
C         15.89185        10.68064         0.94588
C         15.92638        12.08834         0.76327
C         17.24011         9.98496         1.10987
C         17.18428        12.78479         0.72206
C         16.01189        14.90694         0.16624
C         15.94927        16.42044         0.45374
C         17.15950        14.26785         0.96529
C         17.24509        17.11894         0.02306
C         16.01318        19.24696         0.11474
C         17.21201        18.60892         0.31296
C         18.33552         2.04914         0.16458
C         18.31989         3.51339         0.21214
C         19.53605         1.37625        -0.00988
C         19.59653         4.21766         0.32062
C         18.42643         6.37494         0.47147
C         18.40875         7.81679         0.62933
C         19.58487         5.65155         0.57732
C         19.67660         8.52879         0.65870
C         18.36553        10.65389         0.31467
C         18.41050        12.12966         0.60160
C         19.68695         9.95439         0.55453
C         19.64856        12.82543         0.63047
C         18.46436        14.96918         0.67607
C         18.45923        16.47846         0.73766
C         19.65645        14.27325         0.65325
C         19.74464        17.14312         0.25332
C         18.45561        19.26357         0.63687
C         19.69916        18.60998         0.63009
C         20.79160         2.12914        -0.34872
C         20.77959         3.51218         0.26302
C         22.07578         1.35621        -0.16257
C         22.06578         4.16618         0.57431
C         20.83413         6.33542         1.07424
C         20.87019         7.81593         0.79159
C         22.10764         5.63352         0.68558
C         22.11851         8.50340         0.81025
C         20.88744        10.65588         0.58934
C         20.89395        12.11807         0.59313
C         22.13281         9.93647         0.70569
C         22.10557        12.81642         0.64171
C         20.92870        14.98433         0.69433
C         20.96783        16.39349         0.70307
C         22.14315        14.24673         0.75175
C         22.17830        17.09396         0.83345
C         20.93323        19.25481         0.85124
C         22.17260        18.54764         0.87962
C         23.30406         1.94570        -0.08596
C         23.35753         3.41849         0.26093
C         24.53188         1.14109         0.00465
C         24.53292         4.29343         0.07138
C         23.31515         6.31625         0.75267
C         23.34066         7.77549         0.84988
C         24.54672         5.61644         0.50450
C         24.57445         8.47229         0.82707
C         23.36133        10.62257         0.71065
C         23.39995        12.09399         0.38403
C         24.57761         9.90666         0.81415
C         24.58973        12.81459         0.96464
C         23.38084        14.94656         0.87865
C         23.40040        16.36499         0.93987
C         24.61631        14.20171         1.02847
C         24.64415        17.07383         1.02549
C         23.40511        19.21376         0.98621
C         24.64257        18.51216         1.02377
C         25.72889         1.59254        -0.53628
C         25.71367         3.78637        -0.54051
C         27.08822         1.22367        -0.37937
C         26.98585         4.32803        -0.37434
C         25.87031         6.27850         0.80037
C         25.82913         7.78702         0.73132
C         27.07700         5.65033         0.12848
C         27.02044         8.49588         0.70487
C         25.82129        10.60061         0.95090
C         25.78580        12.03587         1.26588
C         27.04659         9.92166         0.91141
C         27.12082        12.78753         1.35280
C         25.87062        14.92468         1.13959
C         25.86927        16.35962         1.06988
C         27.09710        14.23795         1.15752
C         27.11077        17.06273         1.02301
C         25.87935        19.19749         1.04722
C         27.10994        18.50719         1.01726
C         28.20865         2.05517        -0.71545
C         28.16997         3.55587        -0.84275
C         29.46486         1.44404        -0.79554
C         29.50756         4.31511        -0.71249
C         28.29371         6.34128         0.12942
C         28.27887         7.80132         0.36582
C         29.51975         5.69416        -0.18169
C         29.57238         8.50449         0.55563
C         28.30307        10.64345         1.01410
C         28.35643        12.02398         1.11466
C         29.58957         9.87631         1.18883
C         29.60085        12.76346         0.97980
C         28.33825        14.92276         0.99676
C         28.33465        16.35163         0.93969
C         29.56391        14.19726         0.90386
C         29.57648        17.05931         0.81160
C         28.34922        19.19494         0.98284
C         29.57566        18.50881         0.87841
C         30.72024         2.14148        -0.80941
C         30.75841         3.55447        -0.64470
C         31.94182         1.44075        -0.87461
C         31.98673         4.22981        -0.41826
C         30.77047         6.32194         0.05664
C         30.85231         7.70038         0.67930
C         31.98700         5.65184        -0.13228
C         31.96835         8.52016         0.00629
C         30.84912        10.62945         0.79685
C         30.82344        12.07777         0.83514
C         32.00548         9.94685         0.50975
C         32.02782        12.79592         0.49336
C         30.77498        14.91109         0.62244
C         30.77223        16.35456         0.61423
C         31.96448        14.21090         0.35431
C         32.03043        17.06163         0.50517
C         30.81077        19.19352         0.84714
C         32.03798        18.50767         0.68926
C         33.18410         2.10788        -0.72951
C         33.19404         3.50577        -0.43923
C         34.41375         1.41019        -0.88171
C         34.48041         4.16240        -0.01469
C         33.25790         6.36942        -0.05567
C         33.27878         7.78123         0.04497
C         34.47890         5.66151        -0.17751
C         34.49502         8.50986        -0.04025
C         33.32993        10.65019         0.67150
C         33.24885        12.10743         0.31074
C         34.50995         9.93060         0.07054
C         34.45826        12.82243         0.01072
C         33.13121        14.94927        -0.23265
C         33.20851        16.38191         0.22855
C         34.43265        14.20375        -0.15640
C         34.48283        17.06142         0.20760
C         33.25959        19.19297         0.65483
C         34.50151        18.51340         0.46648
C         35.65394         2.10551        -0.89804
C         35.69504         3.50214        -0.60888
C         36.85133         1.44239        -1.27102
C         36.90528         4.21669        -0.70608
C         35.70678         6.36534        -0.31477
C         35.71638         7.79623        -0.27309
C         36.93630         5.65902        -0.53207
C         36.93408         8.51987        -0.42748
C         35.70587        10.65860        -0.14081
C         35.70502        12.09029        -0.13400
C         36.93196         9.94660        -0.37845
C         36.92828        12.80913        -0.29648
C         35.64839        14.96593        -0.59606
C         35.65109        16.39096        -0.08914
C         36.94271        14.22950        -0.35198
C         36.90674        17.17703        -0.36451
C         35.69974        19.19813         0.50057
C         36.99559        18.43878         0.48950
C         38.07331         2.12712        -1.31232
C         38.10327         3.51247        -1.00036
C         39.26998         1.47072        -1.81630
C         39.38173         4.22563        -0.94429
C         38.15018         6.38272        -0.70282
C         38.15610         7.81175        -0.64420
C         39.38286         5.69421        -0.94749
C         39.38201         8.53022        -0.79804
C         38.15856        10.66432        -0.49693
C         38.16154        12.08828        -0.40917
C         39.38587         9.95772        -0.70048
C         39.39511        12.80759        -0.46421
C         38.17204        14.93483        -0.30288
C         38.19512        16.38264        -0.24405
C         39.39529        14.21988        -0.30543
C         39.38637        17.09250        -0.24141
C         38.20977        19.23210         0.08527
C         39.36528        18.56089        -0.21982
C         40.44868         2.12041        -1.96877
C         40.63940         3.48602        -1.45155
C         41.72940         4.33658        -1.93673
C         40.57803         6.39190        -1.19203
C         40.59583         7.82702        -1.06469
C         41.72519         5.67803        -1.71721
C         41.80107         8.57385        -1.17844
C         40.61176        10.68324        -0.83452
C         40.61661        12.10379        -0.72028
C         41.81220         9.94418        -1.05939
C         41.80839        12.88640        -0.96241
C         40.70810        14.92453        -0.04335
C         40.66703        16.42033        -0.27919
C         41.84925        14.21918        -0.72950
C         41.81734        17.15745        -0.41381
C         40.60677        19.26788        -0.44866
C         41.78261        18.58612        -0.54147
O         26.40549        12.35107         2.56131
O         40.35837         3.62439        -0.02525
O         22.86162         3.53017         1.64671
O         15.78747         5.75082         2.27962
O          7.19216         5.72555        -1.39082
O         25.56334         2.71663        -1.39626
O         28.98278         8.50513        -0.75947
O         28.80805         4.13306        -2.00694
O         12.68177         8.32701         2.42970
O          8.35418        14.39941        -2.57538
O         34.57119         3.92378         1.44952
H         35.41694         4.31614         1.75503
O         16.24578        14.62596        -1.22924
H         16.70377        15.40367        -1.64000
O         29.70743         9.67308         2.64345
H         29.57774        10.54173         3.08136
O         10.75879         2.51675        -0.83500
H         10.72897         1.69416        -1.36709
O          8.03151         6.64741         2.04689
H          8.76115         7.09087         2.53030
O         36.79945        17.57989        -1.76057
H         36.50837        16.77600        -2.25880
O         31.18066         7.48758         2.06345
H         30.90296         8.28008         2.58187
O         16.76907         5.98834        -1.23102
H         17.50422         5.67436        -1.79742
O         15.77235        16.63712         1.88300
H         15.10076        15.99830         2.20467
O         32.83462        15.05086        -1.71453
H         32.52503        14.16292        -1.99828
O         17.30978        16.97482        -1.41263
H         18.20280        17.27432        -1.71391
O         37.21168        17.98684         1.86947
H         37.36457        18.77991         2.42425
O         35.54697        15.10661        -2.07850
H         34.58072        15.25742        -2.26118
O         20.72519         2.37605        -1.81838
H         19.80276         2.63725        -2.02785
O         40.95717        14.77444         1.40584
H         40.94307        13.81374         1.60379
O         15.09613        18.58561        -1.98678
H         14.51624        17.91804        -2.41173
O         10.79874         3.14458         2.76298
H         10.90922         3.99663         3.24953
O         20.76975         6.19929         2.54301
H         21.58299         6.60292         2.91351
O         33.59919        10.60588         2.13601
H         32.95175        11.20526         2.56531
O         11.74107         5.73490         3.00414
H         12.53176         5.71905         3.58353
O         26.08892         5.96623         2.23370
H         25.26818         6.20059         2.71760
O         18.39920        16.81770         2.14605
H         17.49678        16.56785         2.46949
O         31.61526         8.60892        -1.40611
H         32.31085         9.12479        -1.86412
O         23.59665        12.14257        -1.08716
H         23.54969        13.08599        -1.35323
O         11.60598         6.25423        -0.60591
H         10.88896         6.49048        -1.23176
O         17.60244        10.09682         2.51631
H         16.96544         9.56267         3.03599
O          2.53849         7.98330        -2.99473
H          2.56306         7.00420        -3.05282
O         19.85701        17.09023        -1.21241
H         20.66444        17.59154        -1.45544
O         16.86727        14.42440         2.39534
H         17.58859        13.97743         2.88783
O         18.03425        10.48171        -1.09077
H         18.66601        11.01030        -1.62116
H          0.17149         1.61325         0.16208
H          0.21428         4.01505        -0.39163
H          2.27627         0.38518         0.68603
H          0.27681         5.99190        -0.27096
H          0.32975         8.30284        -1.01165
H          0.44082        10.01791        -2.01036
H          0.41702        12.45834        -2.06466
H          0.37770        14.37113        -1.94014
H          0.40328        16.82722        -2.01219
H          1.63009        18.97303        -1.95405
H          4.71052         0.37057         0.96979
H          3.76190        20.22164        -1.73686
H          7.17568         0.33187         1.18296
H          6.19718        20.23075        -1.39499
H          9.67533         0.27891         1.02055
H          8.61789        20.25838        -0.99570
H         12.18396         0.27574         0.51237
H         11.05722        20.29475        -0.58491
H         14.61830         0.26944         0.43143
H         13.48961        20.32379        -0.38917
H         17.08586         0.25978         0.21822
H         15.93047        20.33476         0.27065
H         19.53872         0.27767        -0.07907
H         18.43121        20.34599         0.84370
H         22.01669         0.26538        -0.30045
H         20.94914        20.34275         1.02092
H         24.48168         0.17124         0.52118
H         23.42060        20.31374         1.01665
H         27.31674         0.21810         0.00676
H         25.88233        20.29779         1.05001
H         29.50735         0.34445        -0.76288
H         28.35128        20.29477         1.01735
H         31.93311         0.35181        -1.03274
H         30.81883        20.29084         0.93044
H         34.39840         0.33227        -1.09871
H         33.27047        20.28449         0.79630
H         36.81658         0.37513        -1.53624
H         35.70628        20.27914         0.71432
H         39.16582         0.43479        -2.17239
H         38.20385        20.33111         0.15734
H         41.29399         1.63114        -2.47569
H         42.55427         3.86881        -2.49475
H         42.58534         6.26396        -2.06954
H         42.75392         8.05290        -1.34129
H         42.77247        10.47135        -1.13346
H         42.69442        12.39236        -1.38575
H         42.77672        14.77093        -0.93839
H         42.80094        16.66775        -0.42113
H         40.58575        20.36616        -0.50297
H         42.72940        19.12576        -0.68569
