         671
 CSIRO Nanostructure Databank - Neutral Graphene Oxide Data Set
C          5.85876        31.73245        -0.00637
C          5.90223        33.08050         0.01255
C          8.35809        27.42162        -0.72991
C          8.31380        28.83019        -0.39598
C          7.10834        29.52668        -0.22768
C          8.33973        31.68156         0.26772
C          7.05169        30.90440         0.38853
C          8.37753        33.06590         0.34019
C          7.12957        33.82531         0.27071
C          8.34949        35.96915         0.47640
C          7.12981        35.19556         0.36298
C          8.34547        37.34004         0.49751
C         10.75028        23.11910        -1.01323
C         10.75097        24.54266        -1.00077
C          9.56060        25.27467        -0.95495
C         10.83140        27.37189        -0.66678
C          9.55121        26.69395        -0.78718
C         10.79940        28.84599        -0.58976
C          9.54992        29.50781        -0.20924
C         10.88759        31.62592         0.39401
C          9.57543        30.88473         0.29499
C         10.86007        33.10046         0.40450
C          9.62564        33.79468         0.42068
C         10.80920        35.92886         0.68567
C          9.62368        35.23724         0.50755
C         10.81552        37.40447         1.00383
C          9.63400        38.11303         0.34238
C         10.80523        40.25535         0.87837
C          9.60914        39.56023         0.76048
C         10.83818        41.66914         1.05657
C         13.22108        18.86315        -0.80169
C         13.20315        20.25678        -0.90301
C         11.97661        20.98511        -0.93670
C         13.20801        23.11869        -1.44755
C         11.94348        22.37662        -1.06984
C         13.21260        24.53355        -0.92067
C         12.03533        25.23969        -0.87180
C         13.32788        27.35966        -0.55526
C         12.03253        26.68361        -0.68335
C         13.36304        28.82535        -0.47982
C         12.09422        29.58823        -0.53674
C         13.31674        31.67215        -0.02630
C         12.14067        30.98199        -0.04166
C         13.33989        33.08652         0.30622
C         12.09331        33.77598         0.44192
C         13.36622        35.97604         0.70324
C         12.07746        35.21019         0.75277
C         13.35311        37.45527         0.57176
C         12.10462        38.14818         0.67579
C         13.30583        40.28630         0.72450
C         12.08195        39.54608         0.72988
C         13.31174        41.65966         0.98952
C         12.05032        42.38255         1.08751
C         13.28891        44.51597         1.09479
C         12.07551        43.79037         1.17335
C         13.29909        45.91855         1.14746
C         15.70733        14.62033        -0.30366
C         15.66670        16.03462        -0.34352
C         14.45798        16.72940        -0.57290
C         15.68922        18.84093        -0.64259
C         14.43914        18.13108        -0.67499
C         15.68614        20.27350        -0.85352
C         14.46360        20.98150        -0.95457
C         15.70692        23.07466        -1.19657
C         14.48762        22.38062        -1.14651
C         15.69183        24.58315        -1.36718
C         14.52665        25.14194        -0.51599
C         15.79552        27.30777        -0.09768
C         14.49777        26.64281        -0.49784
C         15.80895        28.77195        -0.48734
C         14.53436        29.51717        -0.44075
C         15.79125        31.59219         0.23472
C         14.59072        31.02995        -0.53786
C         15.81605        33.10606         0.23436
C         14.55977        33.78573         0.33981
C         15.82827        35.97334         0.41529
C         14.54836        35.26766         0.07705
C         15.81416        37.34773         0.54467
C         14.56795        38.10998         0.46277
C         15.75023        40.17647         1.16422
C         14.61459        39.62016         0.34616
C         15.83752        41.67032         1.46090
C         14.54528        42.39129         1.10624
C         15.77700        44.52624         0.85232
C         14.54545        43.78172         1.05270
C         15.73233        45.90812         0.78486
C         14.52198        46.65557         1.09938
C         15.89372        48.69789         1.63626
C         14.57732        48.01687         1.38170
C         15.87585        50.19748         1.52199
C         18.23418        10.40325         0.30091
C         17.67508        11.63641         0.64385
C         16.83919        12.48030        -0.09843
C         18.05248        14.66768         0.43825
C         16.85560        13.91277         0.07602
C         18.07793        16.04725         0.21439
C         16.89513        16.76250        -0.16419
C         18.18081        18.96701        -0.28052
C         16.88904        18.16707        -0.37302
C         18.15464        20.14274        -1.26537
C         16.90721        20.96725        -1.01616
C         18.25863        23.02790        -1.33772
C         16.92248        22.35778        -1.13286
C         18.19768        24.51857        -1.12180
C         17.03070        25.21571        -1.01354
C         18.24495        27.32104        -0.55072
C         17.06646        26.62983        -0.59393
C         18.33697        28.73232        -0.00250
C         17.09407        29.50162        -0.37404
C         18.27857        31.64554        -0.24276
C         17.10179        30.96682        -0.17559
C         18.23795        33.15908        -0.34266
C         17.01354        33.78436         0.26781
C         18.34610        35.97681         0.52457
C         17.06598        35.20035         0.79886
C         18.32633        37.39463         0.75308
C         17.03171        38.02961         0.91901
C         18.67986        40.35559         1.21889
C         16.81794        39.34917         1.42995
C         18.38282        41.67186         0.63400
C         17.03028        42.33357         0.73505
C         18.18487        44.47998         0.22275
C         17.02637        43.81443         0.59716
C         18.11588        45.93010        -0.23137
C         16.90982        46.67633         0.33369
C         18.33071        48.78854         0.86118
C         16.99034        48.10338         0.76512
C         18.17487        50.26947         0.64923
C         17.01652        50.93477         1.13873
C         18.21246        53.12634         1.00456
C         17.04114        52.37870         1.19844
C         18.24073        54.54615         1.15044
C         21.02722         6.41956         0.41988
C         20.81059         7.72632         0.88794
C         19.65589         8.45128         0.56152
C         20.44537        10.55260         1.56131
C         19.43699         9.83384         0.87687
C         20.46634        12.02150         1.96581
C         19.28168        12.80827         1.53524
C         20.58096        14.69472         0.75219
C         19.29049        14.02123         0.90002
C         20.62397        16.03947         0.38261
C         19.34979        16.84852         0.44335
C         20.69318        18.77704        -0.58760
C         19.37373        18.02577        -0.54813
C         20.71880        20.18325        -0.91365
C         19.46384        20.98260        -1.23365
C         20.70315        23.06789        -0.75861
C         19.39184        22.35124        -0.52134
C         20.71048        24.47352        -1.26164
C         19.49205        25.20733        -0.72045
C         20.78857        27.37683        -0.81897
C         19.48001        26.67611        -1.13846
C         20.78368        28.80634        -0.64636
C         19.57531        29.50682        -0.41736
C         20.77500        31.64637        -0.45484
C         19.55264        30.92455        -0.38986
C         20.75112        33.16527        -0.55642
C         19.53191        33.76757         0.19389
C         20.76029        36.00842         0.11921
C         19.53652        35.29355         0.22318
C         20.75874        37.39633         0.32176
C         19.58400        38.10291         0.68367
C         20.85365        40.27562         0.22229
C         19.69269        39.55797         0.72328
C         20.81202        41.69281         0.02273
C         19.57108        42.43211         0.21270
C         20.60259        44.54329        -0.52085
C         19.43556        43.79301        -0.00257
C         20.64031        46.02005        -0.32018
C         19.42493        46.69794        -0.07695
C         20.64642        48.80462        -0.07374
C         19.44356        48.09331         0.10506
C         20.62031        50.27882        -0.15312
C         19.31788        51.04135         0.17858
C         20.64709        53.10630         0.48708
C         19.42384        52.45204         0.56742
C         20.70421        54.52626         0.92467
C         19.43808        55.28473         1.05644
C         20.68210        57.44621         0.89296
C         19.48409        56.69021         1.11010
C         20.65857        58.89234         0.78656
C         23.75309         3.86350         0.17041
C         22.48970         4.46302         0.10976
C         23.39534         6.50037         1.14675
C         22.28507         5.78003         0.58079
C         23.23488         7.79976         1.70081
C         21.85979         8.35378         1.72070
C         22.89708        10.59749         2.24002
C         21.65980         9.84468         2.01591
C         22.93180        11.97274         1.90102
C         21.74797        12.65826         1.51779
C         23.05215        14.68426         0.90863
C         21.80287        13.99379         1.03349
C         23.09108        16.01873         0.48047
C         21.85991        16.71222         0.20913
C         23.17023        18.68266        -0.53739
C         21.86206        18.07602        -0.27573
C         23.19478        20.18548        -0.86445
C         21.91552        20.88072        -0.85034
C         23.16044        23.02581        -1.36464
C         22.00198        22.36615        -0.57623
C         23.19000        24.52825        -1.16321
C         22.01435        25.21735        -1.02858
C         23.25017        27.38905        -0.98437
C         21.98652        26.67142        -0.93936
C         23.22888        28.83151        -0.92361
C         22.01647        29.53775        -0.72498
C         23.25313        31.71068        -0.68161
C         21.99949        30.97003        -0.59881
C         23.28762        33.14024        -0.54512
C         22.04379        33.83585        -0.05261
C         23.34834        35.96632         0.09557
C         22.04042        35.34250        -0.37220
C         23.35517        37.39053         0.48239
C         22.05704        38.13055         0.41908
C         23.27052        40.25552        -0.23137
C         22.08486        39.58713         0.11429
C         23.24666        41.66990        -0.46677
C         21.98899        42.35851        -0.36889
C         23.16689        44.57980        -0.84355
C         21.89381        43.79023        -0.71637
C         23.15981        45.92298        -0.12712
C         21.86744        46.70667        -0.27116
C         23.11525        48.89412        -0.13596
C         21.87968        48.12238        -0.19563
C         23.11168        50.27053        -0.08929
C         21.87990        51.02072        -0.04551
C         23.09458        53.17330        -0.12793
C         21.86003        52.39943         0.16729
C         23.11575        54.65304         0.02935
C         21.97520        55.32837         0.72469
C         23.11035        57.56989         0.20087
C         21.89146        56.78415         0.64008
C         23.13977        58.91168         0.93528
C         21.82834        59.64024         0.70139
C         23.06895        61.73644         0.42888
C         21.85292        61.04545         0.54451
C         24.84658         4.56630         0.66105
C         25.79753         6.67379         1.53738
C         24.69157         5.89771         1.14019
C         25.67609         8.00035         2.01216
C         24.33309         8.53672         2.20817
C         25.08821        10.78295         3.14048
C         24.10830         9.92596         2.58922
C         25.03054        12.17750         2.95120
C         24.11414        12.74902         2.08084
C         25.60239        14.75943         1.31731
C         24.34124        13.92209         1.14948
C         25.62063        16.04192         0.80040
C         24.37218        16.72729         0.42760
C         25.58134        18.88039         0.15681
C         24.37731        18.04712         0.02221
C         25.61278        20.27957        -0.30930
C         24.44271        20.96941        -0.67269
C         25.67487        23.07282        -0.82000
C         24.46938        22.35293        -0.96098
C         25.85932        24.51142        -1.34838
C         24.42816        25.24600        -1.63161
C         25.74152        27.42534        -1.42038
C         24.43403        26.70245        -1.25646
C         25.67507        28.88751        -1.10954
C         24.46350        29.56787        -1.01092
C         25.68442        31.76394        -1.12010
C         24.44030        31.00662        -0.90887
C         25.71469        33.19538        -0.81702
C         24.49030        33.87006        -0.55946
C         25.79280        35.98803        -0.23536
C         24.51672        35.29574        -0.20621
C         25.86944        37.42722        -0.01362
C         24.65630        38.21424         0.44257
C         25.79564        40.27670        -0.42255
C         24.53149        39.44589        -0.50634
C         25.73115        41.67648        -0.61095
C         24.46214        42.36784        -0.74473
C         25.80297        44.59422        -0.92798
C         24.46165        43.83705        -0.97233
C         25.70487        46.07915        -0.58520
C         24.38937        46.76576        -0.38274
C         25.66329        48.90511        -0.10635
C         24.38471        48.15818         0.22491
C         25.65971        50.26489        -0.12107
C         24.39213        51.00787         0.24329
C         25.66685        53.20685         0.19918
C         24.41474        52.43174        -0.35079
C         25.72113        54.68334        -0.14312
C         24.42329        55.40145        -0.06449
C         25.71234        57.53731         0.57078
C         24.39655        56.79793         0.45703
C         25.60874        59.00464         0.46120
C         24.40551        59.67441         0.57961
C         24.30398        61.09012         0.43119
C         26.89854         8.74161         2.03689
C         28.06339        10.94058         2.20443
C         27.13606        10.01083         2.62808
C         28.28262        12.30826         2.86244
C         27.06101        13.17532         2.60895
C         28.11310        14.51269         0.82012
C         26.88979        14.09747         1.61866
C         28.10762        16.01395         0.55418
C         26.91672        16.69416         0.53827
C         28.10845        18.86886        -0.11547
C         26.90997        18.16179         0.34476
C         28.09753        20.25758        -0.16781
C         26.83462        20.98423        -0.20529
C         28.09257        23.10830        -0.13297
C         26.82865        22.38454        -0.38492
C         28.08096        24.59376        -0.12409
C         26.73793        25.32701        -0.30414
C         28.12402        27.43161        -0.70751
C         26.90495        26.76398        -0.69907
C         28.19387        28.84853        -0.78142
C         26.90397        29.58905        -0.61013
C         28.23624        31.72673        -0.71062
C         26.99862        31.01519        -1.07794
C         28.18490        33.12851        -0.58746
C         26.96092        33.84285        -0.65102
C         28.22808        35.97623        -0.60547
C         26.96914        35.28042        -0.47569
C         28.16818        37.43315        -0.95832
C         27.02274        38.12277        -0.24483
C         28.21993        40.29173        -0.69048
C         27.09327        39.61654         0.04196
C         28.25018        41.76855        -0.79086
C         26.93119        42.42525        -0.58604
C         28.05479        44.53186         0.42412
C         26.86441        43.83590        -0.16985
C         27.97347        46.04793         0.68806
C         26.92227        46.78329        -0.11785
C         28.16674        48.89110         0.15121
C         26.91610        48.15724        -0.05858
C         28.19243        50.28961        -0.00081
C         26.93987        51.00627        -0.29186
C         28.22234        53.21697         0.12307
C         26.95661        52.50865        -0.21065
C         28.18600        54.62599         0.28118
C         26.99129        55.39945         0.19729
C         26.96488        56.78207         0.35403
C         29.49366        13.01295         2.33741
C         30.60494        14.83396         1.23986
C         29.41116        14.07940         1.49048
C         30.67255        16.04672         0.57126
C         29.38852        16.62208         0.04913
C         30.52419        18.88185        -0.71737
C         29.32486        18.09596        -0.43083
C         30.55548        20.27488        -0.60490
C         29.33300        20.99611        -0.35179
C         30.62276        23.09680        -0.31554
C         29.37104        22.38618        -0.31266
C         30.64695        24.50669        -0.33397
C         29.36993        25.22106        -0.55538
C         30.67608        27.40573        -0.60971
C         29.40170        26.69255        -0.75793
C         30.67396        28.81099        -0.62628
C         29.41102        29.55030        -0.66663
C         30.71426        31.64816        -0.13498
C         29.41422        30.97039        -0.51731
C         30.70087        33.14152        -0.36304
C         29.40448        33.85581        -0.09441
C         30.68722        35.99023        -0.58909
C         29.42298        35.30351        -0.49491
C         30.67124        37.43762        -0.69979
C         29.48769        38.12607        -0.81055
C         30.72062        40.27738        -0.54232
C         29.48254        39.59561        -1.10966
C         30.64666        41.62248         0.07664
C         29.33969        42.35731         0.15771
C         30.57396        44.49675         0.42267
C         29.36432        43.83279         0.35998
C         30.61773        45.96780         0.65068
C         29.32972        46.74858         0.69629
C         30.61890        48.87469         0.35760
C         29.36805        48.19020         0.39127
C         30.61594        50.28868         0.27203
C         29.41314        51.02097         0.14455
C         29.39802        52.45987         0.19805
C         31.93764        16.72805         0.67447
C         33.45521        18.68558         0.38808
C         32.38396        17.84772        -0.01981
C         33.64882        19.98148        -0.12727
C         31.76967        21.01613        -0.75075
C         33.13082        23.07327        -0.26617
C         31.86808        22.37856        -0.42243
C         33.11155        24.50161        -0.27632
C         31.87206        25.21781        -0.39761
C         33.11433        27.37478        -0.46988
C         31.88088        26.66161        -0.49547
C         33.11444        28.79535        -0.59675
C         31.91528        29.50126        -0.65160
C         33.18841        31.65949        -0.48955
C         31.89295        30.99741        -0.87189
C         33.17378        33.12965        -0.12788
C         31.87167        33.83518        -0.43050
C         33.15684        35.99973        -0.56447
C         31.89176        35.28839        -0.53815
C         33.13487        37.44491        -0.59209
C         31.94362        38.14406        -0.66405
C         33.15721        40.27782        -0.15158
C         31.91199        39.59351        -0.51092
C         33.12842        41.72393         0.04572
C         31.89698        42.40007         0.17322
C         33.06900        44.55579         0.21930
C         31.84422        43.80787         0.28804
C         33.05714        45.97425         0.21500
C         31.86713        46.71636         0.36375
C         31.83765        48.11642         0.34609
C         34.48229        20.99157         0.37082
C         35.51927        23.17516         0.33684
C         34.36349        22.38777         0.07731
C         35.54955        24.56181         0.18570
C         34.33035        25.25681        -0.14459
C         35.56189        27.41496        -0.03659
C         34.34172        26.65954        -0.27294
C         35.57612        28.79180        -0.12936
C         34.43158        29.51557        -0.79641
C         35.61497        31.71263        -0.20839
C         34.36291        30.98616        -0.45333
C         35.63961        33.11525        -0.33286
C         34.37706        33.82432        -0.76120
C         35.62380        36.01641        -0.33255
C         34.37318        35.31430        -0.52269
C         35.64198        37.41717        -0.27969
C         34.43242        38.20454        -0.70613
C         35.58919        40.30919         0.37349
C         34.34450        39.59046        -0.10578
C         35.64931        41.72399        -0.23471
C         34.34286        42.46364         0.00120
C         34.29891        43.84847         0.07318
C         36.75279        25.30961         0.40122
C         38.00275        27.43860         0.47650
C         36.78012        26.69284         0.32275
C         38.02168        28.82081         0.46799
C         36.70328        29.55898         0.51827
C         38.01034        31.70178         0.26587
C         36.79189        31.00967         0.12263
C         38.03915        33.11863         0.15302
C         36.83558        33.83734        -0.11277
C         38.06581        35.97468         0.09576
C         36.83846        35.27365        -0.12758
C         38.06497        37.38041         0.14979
C         36.85890        38.12884         0.00755
C         36.85062        39.52067         0.17799
C         39.22866        29.57657         0.57280
C         40.46098        31.71726         0.65597
C         39.23866        30.96643         0.51878
C         40.47800        33.08016         0.57882
C         39.27143        33.83872         0.33920
C         39.27244        35.22818         0.29884
O         27.00008        51.85893        -1.50383
O         23.33006        19.17113        -1.91242
O         26.04954        12.93605         3.53867
O         19.73013        50.76058        -1.21077
O         26.41840        31.34565        -2.35198
O         28.14078        23.90617         1.15651
O         18.07899        12.20122         1.88630
O         22.76071        54.08174        -1.26656
O         29.35311        25.76181        -1.91836
O         17.36465        41.60426        -0.49019
O         24.97892        56.95682         1.75328
O         17.85956        39.87011         2.22885
O         32.87786        20.34770        -1.25909
O         12.90969        35.52188         2.00141
O         23.73400        44.38513        -2.15746
O         26.27327        10.32185         3.72834
O         26.22592        18.79800         1.48222
O         22.63846        37.72079         1.73792
O         19.63776        21.52500        -2.60932
O         27.01453        43.89483         1.27682
O         16.54260        47.80006        -0.57595
O         11.40604        29.48589        -1.84162
O         16.58434        29.10153        -1.69654
O         30.04091        46.39347         1.94136
O         29.23806        16.94031        -1.36350
O         21.00404        44.08160        -1.85377
O         18.67236        22.66796        -2.72540
O         24.99013        46.76749        -1.69107
O         26.54690        24.46917        -2.53390
O         21.64573        54.74805         2.03531
O         25.08514        55.17888        -1.35841
O         21.40513         8.80182         3.02501
O         29.76915        41.58794         1.29200
O         31.64315        18.20957        -1.18059
O         10.31050        31.00178         1.60610
O         27.30710        39.82271         1.46491
H         26.51402        39.46576         1.93646
O         36.33837        29.59969         1.95307
H         36.36235        28.67581         2.28346
O         30.92705        31.45295         1.29779
H         30.22585        31.98184         1.74908
O         28.44627        12.11980         4.27635
H         27.61280        11.70939         4.60255
O         26.71114        29.70485         0.85432
H         26.69841        28.79562         1.22454
O         34.63596        38.45902        -2.15700
H         33.75994        38.68707        -2.53753
O         26.32443        44.55392        -2.28009
H         25.63171        44.95889        -2.85233
O         19.21395        17.39178        -1.83630
H         18.87693        18.07447        -2.47067
O         19.56067        33.31177         1.56466
H         20.35756        33.70819         1.99150
O         23.23087        45.52609         1.28404
H         23.76767        46.19519         1.77274
O         19.32958        26.72302        -2.57697
H         19.19074        27.65568        -2.84191
O         14.32527        35.40971        -1.36923
H         15.13253        35.10334        -1.83351
O         18.27913        19.58999         1.01060
H         18.47005        18.89034         1.68014
O         24.54356        52.25024        -1.76105
H         24.32413        53.10960        -2.18914
O         34.70621        29.46669        -2.24375
H         34.77567        28.52166        -2.49835
O         33.31754        33.21221         1.31653
H         32.64132        32.60339         1.69838
O         22.09844        35.58583        -1.80072
H         21.51204        34.92076        -2.24384
O         23.16845        58.63250         2.35550
H         23.26857        59.48322         2.82946
O         13.16422        23.22843        -2.91212
H         12.42133        23.82600        -3.14181
O         24.28588        25.15285        -3.08390
H         25.20059        24.87704        -3.40970
O         16.26540        48.37058         3.05049
H         15.63570        48.84614         3.63370
O         24.90672        38.70689         1.77319
H         24.06384        38.59307         2.28287
O         24.61207        13.24126        -0.14180
H         25.58644        13.16997        -0.25647
O         18.79793        48.67602         2.25338
H         17.99428        48.67910         2.83822
O         25.65543        53.27818         1.64243
H         25.38267        52.40692         2.02128
O         19.12388        22.28891         0.87870
H         19.19854        23.21229         1.22073
O         35.46165        40.52053         1.81577
H         35.40495        39.64222         2.24700
O         28.72455        42.18625        -2.10785
H         29.06287        41.37907        -2.58019
O         22.12097        33.74368         1.40129
H         22.40531        32.83498         1.63591
O         15.39711        24.93185        -2.73420
H         16.06731        24.51265        -3.31314
O         24.33681        48.04440         1.69891
H         23.41284        48.20236         1.99161
O         10.66380        37.49684         2.44789
H         11.36422        36.92918         2.84273
O          6.89457        30.64390         1.84074
H          7.76939        30.35173         2.17848
O         34.23989        33.64049        -2.20246
H         34.99609        34.08554        -2.63904
O         24.39284        38.89064        -1.85012
H         24.23646        39.63359        -2.47090
O         17.91026        45.83850        -1.66705
H         17.50964        46.69148        -1.95202
O         29.30033        33.82348         1.39299
H         29.90930        34.51153         1.73929
O         19.31809        17.34323         1.82255
H         19.25759        16.56384         2.41485
O         31.67413        31.23519        -2.28526
H         32.49505        30.98836        -2.76261
O         22.36496        22.48093         0.84543
H         21.57808        22.21504         1.37034
O         22.90844        22.80250        -2.77572
H         23.46948        23.46415        -3.25991
O         20.58383        24.38844        -2.70739
H         21.29066        23.77023        -3.02517
O         23.02885        57.83551        -1.21866
H         23.10689        56.98659        -1.70451
O         14.88070        39.95519        -1.06013
H         15.70629        40.49242        -1.10156
O         26.15524        27.24943        -2.82114
H         26.45370        26.29774        -2.91822
O         14.80660        24.70235         0.86556
H         13.96401        24.74269         1.36679
O         18.39138        28.64907         1.44996
H         19.27468        28.30947         1.70399
O         24.36774        51.04508         1.71139
H         24.51728        50.12039         2.02262
O         14.77211        31.41043        -1.92461
H         14.11685        30.92015        -2.46513
O         15.82235        27.25757         1.35873
H         15.63960        26.31908         1.60505
O         15.57994        31.19043         1.61289
H         16.28365        31.59285         2.16494
O         20.47279        12.05860         3.44119
H         19.63059        11.64935         3.73663
O         26.01421        25.30751         0.94553
H         26.46791        24.63699         1.51561
O         27.46621        46.20241         2.04397
H         28.21353        45.98507         2.64770
O         16.99641        35.04219         2.26371
H         17.05140        35.94077         2.65421
O         19.57078        25.13040         0.73336
H         18.84432        25.68538         1.09552
O         28.04053        13.84736        -0.47629
H         28.70672        14.25992        -1.06695
O         27.83271        37.53986        -2.40338
H         26.92921        37.17174        -2.52208
O          9.93246        38.10714        -1.09475
H          9.22856        38.61229        -1.55260
O         35.89952        41.63293        -1.64202
H         35.34485        40.91136        -2.00881
O         29.60550        39.69627        -2.59554
H         28.98180        39.01501        -2.95348
O         18.01281        19.60978        -2.60445
H         18.38041        20.28930        -3.22107
O         16.06164        41.88589         2.87605
H         15.32733        41.46845         3.37194
O         18.08995        33.46784        -1.77544
H         17.34322        32.92951        -2.11921
O         20.67892        33.43066        -1.97949
H         19.73820        33.31398        -2.26968
H          4.91307        31.21101        -0.21779
H          4.99413        33.66352        -0.20671
H          7.40382        26.88834        -0.85570
H          6.15816        28.98248        -0.34120
H          6.17624        35.74201         0.29679
H          7.38889        37.88429         0.44022
H          9.79107        22.59097        -0.89732
H          8.59988        24.74237        -1.02297
H          8.65184        40.10293         0.81236
H          9.88833        42.22201         1.11455
H         12.26903        18.31093        -0.79401
H         11.03145        20.43287        -0.81425
H         11.12666        44.34110         1.25830
H         12.35112        46.46100         1.27937
H         14.79509        14.05819        -0.55283
H         13.51826        16.16319        -0.65358
H         13.64823        48.55364         1.62839
H         14.98474        50.73751         1.87603
H         17.79407         9.86016        -0.54932
H         16.19925        12.06459        -0.89165
H         16.12361        52.90165         1.50663
H         17.29637        55.07739         1.34209
H         20.22499         5.89815        -0.12362
H         18.87731         7.93602        -0.02158
H         18.54072        57.24071         1.24431
H         19.68248        59.40081         0.75272
H         23.88337         2.83583        -0.19673
H         21.64020         3.90915        -0.31513
H         23.04438        62.82786         0.29812
H         20.90499        61.59935         0.47628
H         25.84339         4.10289         0.67766
H         26.80603         6.24877         1.42148
H         26.51847        59.57027         0.20556
H         25.22330        61.67672         0.28626
H         27.73688         8.29518         1.47896
H         28.69210        10.67769         1.34117
H         29.12772        55.14951         0.50900
H         27.91542        57.32767         0.46354
H         30.46974        12.73270         2.76178
H         31.53211        14.44610         1.69034
H         31.57315        50.82914         0.31298
H         30.35444        52.97710         0.37030
H         32.62651        16.31579         1.42849
H         34.02815        18.38480         1.27650
H         34.00805        46.51070         0.07817
H         32.78681        48.66198         0.23303
H         35.31232        20.69458         1.03048
H         36.44169        22.65703         0.63979
H         36.49609        42.29339         0.22280
H         35.23316        44.42615         0.00772
H         37.67593        24.76096         0.64174
H         38.94739        26.87974         0.56433
H         39.00541        37.91540         0.34825
H         37.79966        40.02820         0.41011
H         40.18065        29.03458         0.68601
H         41.39458        31.16425         0.83771
H         41.42369        33.62867         0.70097
H         40.21323        35.77733         0.45441
