         341
 CSIRO Nanostructure Databank - Neutral Graphene Oxide Data Set
C          1.42810         2.10332        -1.44801
C          1.31826         3.45011        -1.07039
C          2.63064         1.43147        -1.30454
C          2.41692         4.13327        -0.52480
C          1.15555         6.35656        -0.61368
C          1.20330         7.68785        -0.80704
C          2.36246         5.59658        -0.11097
C          2.42623         8.46026        -0.59015
C          1.22866        10.62933        -0.80687
C          1.23200        12.01284        -0.81862
C          2.41409         9.89929        -0.57186
C          2.41197        12.75134        -0.56887
C          1.32760        14.92140        -1.15614
C          1.33184        16.34162        -1.23612
C          2.38724        14.20917        -0.63617
C          2.46677        17.08087        -0.90473
C          2.53173        18.51080        -1.08613
C          3.76368         2.09748        -0.76236
C          3.63947         3.45964        -0.35503
C          5.00370         1.41902        -0.63803
C          4.79739         4.14931         0.32940
C          3.65258         6.27698        -0.59870
C          3.62132         7.77643        -0.39561
C          4.88771         5.61183        -0.04307
C          4.84240         8.48870        -0.17322
C          3.62742        10.62221        -0.29079
C          3.61177        12.05815        -0.27057
C          4.82823         9.90301        -0.06803
C          4.85307        12.79883        -0.06045
C          3.54451        14.94976        -0.02768
C          3.63668        16.39639        -0.43707
C          4.85324        14.19837        -0.11966
C          4.82965        17.08683        -0.22357
C          3.67990        19.20155        -0.84047
C          4.88995        18.53387        -0.40959
C          6.18175         2.10270        -0.23480
C          6.11701         3.46255         0.11933
C          7.43199         1.39752        -0.17167
C          7.33441         4.18459         0.61785
C          6.09359         6.32626        -0.02428
C          6.06895         7.75709        -0.12675
C          7.36215         5.64296         0.20176
C          7.32358         8.51397        -0.23617
C          6.05422        10.61534         0.45082
C          6.08548        12.09780         0.17427
C          7.35329         9.94736         0.06371
C          7.29352        12.77850         0.31757
C          6.06813        14.93889         0.00717
C          6.02999        16.34541         0.03590
C          7.32213        14.22764         0.22989
C          7.26518        17.08458         0.32758
C          6.05740        19.24366        -0.22046
C          7.29127        18.58853         0.22850
C          8.63490         2.05358         0.11489
C          8.62998         3.47312         0.32975
C          9.88316         1.35658         0.13537
C          9.83237         4.17845         0.39436
C          8.57207         6.30579         0.18006
C          8.63610         7.74463        -0.14089
C          9.82609         5.61681         0.40471
C          9.84811         8.49548         0.20067
C          8.55693        10.62489         0.19117
C          8.56507        12.06742         0.40869
C          9.82010         9.90678         0.23341
C          9.76557        12.75056         0.57705
C          8.51034        14.91081         0.39773
C          8.56663        16.37515         0.04516
C          9.75235        14.22623         0.91640
C          9.75430        17.09173         0.69852
C          8.60764        19.23862         0.09292
C          9.78682        18.56507         0.32326
C         11.08826         2.02417         0.34646
C         11.09191         3.47591         0.44619
C         12.33371         1.32725         0.35788
C         12.28142         4.18008         0.59701
C         11.03690         6.32812         0.47778
C         11.04600         7.77116         0.43489
C         12.28927         5.61714         0.58500
C         12.26391         8.47847         0.57758
C         11.03511        10.62177         0.43993
C         11.03188        12.05431         0.54647
C         12.26209         9.90554         0.55632
C         12.26055        12.74153         0.60157
C         11.02027        14.96692         0.51590
C         11.01352        16.31746         0.36757
C         12.32986        14.24398         0.77460
C         12.25298        17.08194         0.08381
C         11.05142        19.23473         0.33990
C         12.26057        18.54054         0.33950
C         13.54640         1.98480         0.56823
C         13.53141         3.43694         1.00424
C         14.77946         1.30901         0.51116
C         14.81586         4.15478         0.68355
C         13.50111         6.33095         0.63596
C         13.49953         7.75698         0.70257
C         14.80543         5.62230         0.33438
C         14.70528         8.47823         0.86350
C         13.49533        10.61546         0.64176
C         13.49537        12.03918         0.59789
C         14.71915         9.88867         0.79642
C         14.76090        12.74099         0.56286
C         13.50830        14.80580        -0.04414
C         13.55381        16.33831        -0.03113
C         14.80370        14.15359         0.38009
C         14.79027        17.05904         0.34662
C         13.51926        19.18338         0.41195
C         14.72615        18.46818         0.48348
C         16.01517         1.99200         0.62900
C         16.01330         3.45314         0.70628
C         17.24107         1.31765         0.55281
C         17.27044         4.14357         0.76499
C         15.99684         6.30998         0.91164
C         15.95112         7.74823         1.29059
C         17.26079         5.57812         1.21909
C         17.22023         8.46848         0.87866
C         15.96824        10.60589         0.82330
C         15.97036        12.00439         0.66313
C         17.20367         9.85181         0.83715
C         17.25263        12.71046         0.29899
C         16.00899        14.88923         0.43725
C         16.01042        16.33586         0.49204
C         17.25944        14.20131         0.50670
C         17.25204        17.01039         0.64352
C         15.95866        19.21604         0.81556
C         17.26899        18.46794         0.85896
C         18.48039         2.01128         0.54021
C         18.48192         3.45996         0.66248
C         19.69793         1.32750         0.43806
C         19.73216         4.17394         0.64873
C         18.48422         6.35059         0.74962
C         18.43728         7.72929         0.67344
C         19.72728         5.62157         0.59932
C         19.62785         8.49803         0.14755
C         18.47908        10.58502         1.01680
C         18.47314        12.07773         0.90734
C         19.75370         9.89089         0.73971
C         19.75135        12.79238         0.74656
C         18.48270        14.87822         0.53415
C         18.48657        16.31474         0.57404
C         19.76026        14.15976         0.59502
C         19.72800        17.02382         0.50287
C         18.53009        19.17277         0.66887
C         19.71165        18.46845         0.49210
C         20.93994         2.01696         0.41511
C         20.95111         3.46241         0.51710
C         22.15346         1.32365         0.29010
C         22.20056         4.14674         0.45305
C         20.92783         6.32022         0.43117
C         20.92849         7.73893         0.24768
C         22.24139         5.63086         0.71514
C         22.08672         8.43563        -0.02327
C         20.93010        10.56998         0.69878
C         20.98418        12.02856         1.15886
C         22.08370         9.91555         0.00865
C         22.29144        12.76186         0.80795
C         21.02172        14.89509         0.51091
C         20.97340        16.33569         0.39457
C         22.25662        14.22890         0.51705
C         22.18372        17.06222         0.22226
C         20.95446        19.16692         0.33660
C         22.14796        18.49786         0.20512
C         23.39279         2.00587         0.20186
C         23.39977         3.45169         0.26471
C         24.60769         1.30987         0.06307
C         24.65036         4.15546         0.07690
C         23.42889         6.29649         0.06973
C         23.32554         7.69688        -0.34415
C         24.62927         5.61689        -0.07804
C         24.58303         8.43009        -0.76106
C         23.35982        10.65471        -0.25831
C         23.51431        12.01276         0.37535
C         24.59546         9.95693        -0.90467
C         24.76571        12.79003         0.09791
C         23.46148        14.92050         0.10235
C         23.42101        16.36657        -0.02407
C         24.68280        14.24391        -0.11970
C         24.59489        17.08866        -0.31252
C         23.40409        19.31645         0.05142
C         24.65528        18.50427        -0.12968
C         25.83785         1.99891        -0.07534
C         25.81949         3.44458        -0.12388
C         27.06907         1.31801        -0.15342
C         27.07330         4.16806        -0.55286
C         25.85069         6.33241        -0.32943
C         25.87453         7.71428        -0.58973
C         27.12875         5.60439         0.00484
C         27.09138         8.42412        -0.73925
C         25.92076        10.56904        -0.53980
C         25.97793        12.02300        -0.32684
C         27.11585         9.86183        -0.76189
C         27.08849        12.78471        -0.94379
C         25.90045        14.91956        -0.48597
C         25.82018        16.39133        -0.84873
C         27.08331        14.24391        -0.75176
C         27.10994        17.11957        -0.57721
C         25.86707        19.15600        -0.04089
C         27.12030        18.45656        -0.16578
C         28.31129         2.02784        -0.13639
C         28.32793         3.41365        -0.22570
C         29.57695         1.30866        -0.06617
C         29.59862         4.17236         0.07250
C         28.39075         6.27745        -0.47852
C         28.34507         7.66109        -1.07846
C         29.57212         5.60061        -0.42165
C         29.62667         8.42464        -0.84229
C         28.37521        10.55887        -0.86979
C         28.39156        12.00564        -1.14310
C         29.61303         9.84974        -0.84153
C         29.65009        12.76815        -0.99478
C         28.33625        14.94571        -1.24252
C         28.36938        16.42648        -0.86537
C         29.62675        14.18427        -0.88983
C         29.63376        17.10569        -0.42832
C         28.33455        19.13239         0.16677
C         29.56927        18.47788         0.13965
C         30.76593         1.96025        -0.22003
C         30.82514         3.39683        -0.34326
C         31.95827         4.06638        -0.73653
C         30.83549         6.25251        -0.74867
C         30.84216         7.71619        -0.82983
C         31.97749         5.48835        -0.88335
C         32.05371         8.44939        -0.82521
C         30.84894        10.57212        -0.83954
C         30.84857        12.03220        -0.79878
C         32.05116         9.83678        -0.84514
C         32.03715        12.74535        -0.54218
C         30.81812        14.85819        -0.53332
C         30.80471        16.26957         0.02627
C         32.00755        14.12071        -0.38142
C         32.07339        17.08032        -0.07741
C         30.79216        19.09344         0.46053
C         32.02280        18.41414         0.22859
O         22.28552        10.64623        -1.27091
O         18.35951        11.43790         2.21410
O          8.08369         8.11850        -1.44829
O         23.26051        12.22536         1.80068
O         27.50065        12.36266        -2.26842
O          7.16922        17.87155         1.56296
O         23.72800         7.84038        -1.78905
O         12.88089        16.84517        -1.24694
O         25.81032        12.41825         1.09041
O         29.28507        17.11262        -1.84121
O         22.45029         5.78730         2.17113
H         21.71644         5.31890         2.62382
O         27.00730         4.31087        -2.00544
H         27.00536         3.41184        -2.39571
O         13.31115        14.36789        -1.41356
H         13.01732        15.16275        -1.92255
O         27.17404         5.53186         1.45272
H         28.04058         5.12344         1.71096
O         28.27085         7.46037        -2.53878
H         28.13506         8.34020        -2.95154
O         14.92758         5.68142        -1.15189
H         14.10953         5.29232        -1.52901
O         15.96183         7.82327         2.78592
H         16.09127         8.76639         3.02953
O         17.41681        12.50461        -1.14830
H         16.62978        12.88514        -1.59395
O         29.65301         4.25549         1.55820
H         29.72016         3.33508         1.89367
O         16.52952        18.90509         2.10168
O         19.36857         8.68625        -1.27860
H         20.14690         9.14050        -1.66883
O         17.37963         5.49940         2.69239
H         16.97291         6.32743         3.05556
O         25.66640        16.38397        -2.31772
H         26.44271        15.88968        -2.68469
O          3.25736        14.98899         1.43138
H          3.97800        15.50632         1.85190
O          4.52723         4.09508         1.80518
H          4.23110         3.18259         2.01113
O         30.55212        16.06893         1.46277
H         31.33839        15.62664         1.84651
O          8.73664        16.46984        -1.40155
H          9.57506        16.01860        -1.63860
O          3.68926         6.06173        -2.04859
H          4.48048         6.52174        -2.40098
O         28.22126        14.93112        -2.69889
H         28.86846        15.59706        -3.03021
O         13.47435         3.40364         2.47998
H         14.26681         2.91521         2.79045
O          5.96805        10.48184         1.92085
H          6.67940        11.03621         2.30796
O          2.34594         5.67914         1.33328
H          1.53454         5.23837         1.65796
O         24.50779        10.23414        -2.32626
H         23.86108         9.58766        -2.69541
O         12.60254        14.49743         2.17907
H         11.77125        14.28881         2.66960
O         23.58186        20.18125         1.18298
H         22.70944        20.54293         1.44026
O         20.90502        12.01574         2.61005
H         21.81925        11.86994         2.94620
O          9.72365        14.30400         2.39040
H          9.64152        15.27514         2.59966
O          9.60759        17.01910         2.14741
H          8.74496        17.46833         2.35242
O          7.22343         4.20894         2.09371
H          6.26092         4.34404         2.30001
H          0.55511         1.58688        -1.87111
H          0.35697         3.96093        -1.21445
H          2.72612         0.38300        -1.62069
H          0.19082         5.83730        -0.71472
H          0.28653         8.21369        -1.10821
H          0.28242        10.10665        -0.99625
H          0.28770        12.53903        -1.01114
H          0.44653        14.39649        -1.55183
H          0.44394        16.85626        -1.63050
H          1.62858        19.03699        -1.42870
H          5.06754         0.35867        -0.92138
H          3.71085        20.29233        -0.97895
H          7.43775         0.31792        -0.38192
H          6.08422        20.32059        -0.44519
H          9.88398         0.26550        -0.00658
H          8.63376        20.30525        -0.17812
H         12.33482         0.24280         0.16736
H         11.06579        20.33554         0.34430
H         14.78757         0.22875         0.29948
H         13.54726        20.27654         0.53662
H         17.24659         0.21969         0.47980
H         15.96493        20.30365         0.57150
H         19.69687         0.22998         0.35920
H         18.54515        20.26988         0.73806
H         22.14253         0.22480         0.23534
H         20.93498        20.26809         0.32279
H         24.60338         0.20969         0.06047
H         23.27778        19.96388        -0.87487
H         27.08177         0.21885        -0.11756
H         25.88351        20.22936         0.19487
H         29.55053         0.21197         0.00923
H         28.27933        20.17600         0.51051
H         31.70326         1.38855        -0.29827
H         32.87792         3.50169        -0.95238
H         32.93423         5.96120        -1.14477
H         33.01686         7.92176        -0.80880
H         33.01734        10.35821        -0.86468
H         32.98736        12.21682        -0.39338
H         32.93557        14.63705        -0.09940
H         33.04224        16.59747        -0.26712
H         30.80438        20.14189         0.79055
H         32.95707        18.99286         0.28336
