         661
 CSIRO Nanostructure Databank - Neutral Graphene Oxide Data Set
C          6.03097        31.90999        -1.25572
C          5.77110        33.23101        -1.00148
C          8.33876        27.46232        -1.15311
C          8.41986        28.97331        -1.03521
C          7.28339        29.76163        -1.30688
C          8.55122        31.78462        -0.94726
C          7.30105        31.17496        -1.24821
C          8.72999        33.22242        -0.94268
C          6.78937        34.27112        -0.97055
C          8.27723        36.10302        -0.28674
C          6.95106        35.43545        -0.27961
C          8.39061        37.44547        -0.49186
C         10.88241        23.16993        -1.01212
C         10.85712        24.57818        -0.85861
C          9.67520        25.34213        -1.09322
C         10.81872        27.38657        -0.45925
C          9.63921        26.71857        -0.88060
C         10.79389        28.84373        -0.05118
C          9.59576        29.59935        -0.58456
C         10.79315        31.67365         0.11372
C          9.63223        31.00107        -0.51287
C         10.73077        33.13620         0.45116
C          9.59000        33.88120        -0.12176
C         10.84721        36.02197        -0.02260
C          9.50624        35.34624         0.22807
C         10.88802        37.37429        -0.27247
C          9.66333        38.14270        -0.44340
C         10.90066        40.29448        -0.36560
C          9.69769        39.52358        -0.53820
C         10.85946        41.68912        -0.31146
C         13.23482        18.83326        -0.69727
C         13.25599        20.22667        -0.54438
C         12.09327        21.00226        -0.83312
C         13.23102        23.12773        -0.32957
C         12.05167        22.42032        -0.74565
C         13.23111        24.50965        -0.19644
C         12.04998        25.26818        -0.46020
C         13.24634        27.41769         0.05479
C         12.02664        26.68487        -0.30254
C         13.31098        28.77753         0.01449
C         12.09870        29.54321        -0.47047
C         13.28250        31.70419         0.55891
C         12.11717        31.01083        -0.05140
C         13.18993        33.12878         1.11086
C         11.99950        33.89873         0.57095
C         13.40580        35.91784         0.13302
C         12.05177        35.23211         0.27084
C         13.28048        37.40259         0.37500
C         12.20990        38.10160        -0.45925
C         13.28861        40.25538         0.20265
C         12.13639        39.57434        -0.12333
C         13.31468        41.70212        -0.07837
C         12.05386        42.46294        -0.16959
C         13.33325        44.58672         0.03643
C         12.10277        43.84996        -0.15517
C         13.34242        46.02224        -0.04300
C         15.69782        14.42202        -0.61421
C         15.63830        15.84974        -0.61645
C         14.45249        16.56378        -0.68433
C         15.68511        18.76625        -0.08046
C         14.38689        18.00608        -0.36552
C         15.70314        20.24253        -0.05393
C         14.48158        20.90687        -0.14992
C         15.73937        23.08012         0.22605
C         14.42705        22.35720         0.07093
C         15.78654        24.53743        -0.16676
C         14.47798        25.19710         0.23197
C         15.80094        27.38692         0.11973
C         14.48358        26.67207         0.38515
C         15.81031        28.80061         0.62358
C         14.48080        29.45457         0.65197
C         15.71673        31.53726         1.62536
C         14.41722        30.87746         1.08825
C         15.65330        33.08633         1.57146
C         14.56526        33.76237         0.75709
C         15.71315        35.96575         1.19855
C         14.56010        35.26574         0.86683
C         15.64801        37.43579         1.60132
C         14.44144        38.15583         0.94115
C         15.73442        40.24083         0.62896
C         14.53154        39.58524         0.56312
C         15.73501        41.71378         0.75928
C         14.58385        42.45049         0.16551
C         15.84754        44.60699         0.25426
C         14.52619        43.90007         0.30771
C         15.71022        46.04586         0.67575
C         14.50210        46.77325         0.21074
C         15.80577        48.88948         0.22146
C         14.57391        48.17320         0.10942
C         15.85377        50.28267        -0.08822
C         18.17077        10.13528        -0.11046
C         18.12166        11.52742        -0.26712
C         16.93623        12.28119        -0.44754
C         18.16116        14.44985        -0.43511
C         16.90688        13.70466        -0.51305
C         18.17756        15.86073        -0.44332
C         16.92490        16.59853        -0.65037
C         18.21593        18.76835        -0.05635
C         16.96380        18.09116        -0.43770
C         18.23661        20.17920         0.24010
C         16.96877        20.91626         0.14397
C         18.18542        23.03572         0.48564
C         16.99916        22.31697         0.22099
C         18.19261        24.44519         0.60187
C         17.00722        25.23014         0.39889
C         18.14155        27.30301         1.10194
C         17.00212        26.60864         0.57090
C         18.23113        28.73987         1.12361
C         16.98665        29.46583         0.90190
C         18.21997        31.68380         1.33821
C         16.94679        30.99538         0.88228
C         18.20344        33.03307         1.61507
C         16.95246        33.82451         1.65120
C         18.19797        35.98575         1.31532
C         16.96094        35.27892         1.40123
C         18.22448        37.36383         1.17319
C         17.03161        38.22814         1.50805
C         18.28265        40.28729         0.89030
C         17.03113        39.46598         0.58109
C         18.26757        41.65507         1.06305
C         17.01513        42.43873         1.02040
C         18.25389        44.60429         1.03422
C         17.04968        43.89663         0.84044
C         18.24808        46.01846         0.94146
C         16.99753        46.78943         0.86020
C         18.27187        48.88420         0.41464
C         17.02200        48.21704         0.52395
C         18.29520        50.27660         0.10698
C         17.05936        50.97750        -0.14276
C         18.30341        53.05433        -0.63509
C         17.11436        52.36013        -0.55141
C         18.36708        54.41355        -1.06882
C         20.84322         5.90483         0.79092
C         20.76939         7.41391         0.88246
C         19.48577         8.08259         0.41474
C         20.65194        10.11759        -0.38037
C         19.41368         9.41194         0.07096
C         20.60504        11.56665        -0.68582
C         19.41533        12.27201        -0.05660
C         20.59741        14.42880        -0.31637
C         19.38716        13.74453        -0.33920
C         20.59653        15.84604        -0.23196
C         19.37999        16.58205        -0.23573
C         20.61740        18.64984         0.40144
C         19.40392        18.02014        -0.01909
C         20.73462        20.10837         0.83437
C         19.42589        20.83572         0.56517
C         20.64097        23.07622         0.38427
C         19.42176        22.29658         0.93440
C         20.69014        24.44328         1.09248
C         19.35680        25.11524         1.10973
C         21.00235        27.50361         1.53095
C         19.17896        26.42459         1.54833
C         20.78841        28.86926         1.20871
C         19.46651        29.50279         1.27486
C         20.70051        31.67161         1.37049
C         19.45457        30.91900         1.31132
C         20.68971        33.04046         1.59204
C         19.44790        33.83090         1.89489
C         20.72226        35.97758         1.50986
C         19.48002        35.18329         1.13417
C         20.73342        37.36441         1.37396
C         19.51931        38.05673         0.78745
C         20.73201        40.23284         1.25358
C         19.52014        39.55576         1.02461
C         20.78070        41.66992         1.30997
C         19.48380        42.39913         1.55565
C         20.71921        44.51784         1.10885
C         19.51751        43.87051         1.18643
C         20.76794        45.98760         1.15511
C         19.47904        46.77701         1.08889
C         20.72547        48.84760         0.47315
C         19.50409        48.19837         0.66504
C         20.72848        50.21357         0.08256
C         19.53732        50.93910        -0.01793
C         20.83543        53.01763        -0.68842
C         19.57131        52.44534        -0.08393
C         20.83626        54.35169        -1.15255
C         19.57999        55.06580        -1.27365
C         20.80000        57.09981        -1.93388
C         19.62621        56.45281        -1.64109
C         20.71215        58.59684        -2.16465
C         23.38867         3.20435         1.08357
C         22.15355         3.82040         1.05371
C         23.27326         5.88923         0.27453
C         22.03595         5.22955         0.78174
C         23.24108         7.33503        -0.07231
C         22.04676         8.12664         0.37793
C         23.22749        10.23443        -0.58555
C         21.99076         9.52124        -0.13825
C         23.18092        11.60581        -0.76786
C         21.87400        12.35991        -0.98249
C         23.06054        14.48171        -0.76894
C         21.90794        13.67938        -0.18969
C         23.05651        15.97911        -0.58018
C         21.82045        16.53393         0.00212
C         23.55390        18.96847         0.14264
C         21.71845        17.81461         0.54538
C         23.30298        20.33820        -0.03875
C         22.00556        20.94344         0.34578
C         23.09477        23.16409        -0.06458
C         21.94594        22.31327         0.38105
C         23.17811        24.59469         0.35173
C         22.00243        25.24205         0.99710
C         23.19351        27.44579         0.56349
C         22.04977        26.72943         1.02706
C         23.17532        28.87803         0.57866
C         21.94766        29.57911         0.83394
C         23.14720        31.69781         0.91890
C         21.95092        31.01150         1.01120
C         23.24180        33.04817         1.45094
C         21.93574        33.78077         1.76802
C         23.17142        35.92415         1.77099
C         21.95544        35.25757         1.70659
C         23.13388        37.39172         2.11713
C         21.93638        38.11011         1.55982
C         23.22302        40.23786         1.50808
C         21.97603        39.50620         1.41797
C         23.23361        41.63221         1.39526
C         21.99731        42.34802         1.28979
C         23.26607        44.59324         1.32553
C         22.04102        43.80568         0.87486
C         23.27794        45.99615         1.16068
C         22.01967        46.65714         0.62801
C         23.29459        48.78607         0.44822
C         22.00716        48.16516         0.92338
C         23.29529        50.10238        -0.19838
C         21.99052        50.84288        -0.36526
C         23.27454        52.90055        -0.95894
C         22.03172        52.29104        -0.62440
C         23.25827        54.22847        -1.46593
C         22.05552        54.96577        -1.56447
C         23.24812        57.01271        -2.28617
C         22.05850        56.36968        -1.97013
C         23.30245        58.45527        -2.60882
C         22.02126        59.27289        -2.53654
C         23.39394        61.31044        -2.33544
C         22.16487        60.70768        -2.27104
C         24.60140         3.91042         0.87120
C         25.76195         6.06076         0.47256
C         24.59632         5.25939         0.50071
C         25.76880         7.44125         0.16503
C         24.53770         8.06768        -0.44068
C         25.67811        10.28628        -0.31917
C         24.48430         9.56727        -0.36472
C         25.67892        11.71229        -0.53609
C         24.40338        12.38452        -0.78220
C         25.58865        14.57895        -0.61564
C         24.35040        13.76707        -0.90193
C         25.58773        15.99550        -1.18663
C         24.33186        16.77878        -0.87958
C         25.60931        18.96636        -1.06306
C         24.48829        18.23577        -0.61359
C         25.59636        20.38316        -0.94144
C         24.37932        21.05436        -0.62738
C         25.54949        23.34600        -1.00393
C         24.27958        22.52546        -0.73230
C         25.64266        24.52167        -0.00722
C         24.34847        25.29891         0.15680
C         25.60266        27.46857         0.06092
C         24.40079        26.74337         0.27524
C         25.59114        28.91070         0.11984
C         24.38478        29.59192         0.34101
C         25.64256        31.79302         0.53006
C         24.33581        31.09857         0.20811
C         25.62892        33.16204         0.87193
C         24.45025        33.84027         1.23531
C         25.64284        35.94064         1.67719
C         24.44060        35.24033         1.58422
C         25.65324        37.30790         2.28366
C         24.43259        38.11884         1.89716
C         25.70636        40.21123         1.97252
C         24.46277        39.48186         1.70492
C         25.73740        41.71067         1.88594
C         24.54070        42.39195         1.19247
C         25.69078        44.64656         1.45378
C         24.49084        43.90286         1.47061
C         25.71528        46.06407         1.31007
C         24.47854        46.74477         1.16845
C         25.72655        48.89868         0.68863
C         24.47679        48.15561         0.76454
C         25.71234        50.26694         0.27248
C         24.54102        50.88724        -0.20778
C         25.77457        52.93060        -0.85985
C         24.52410        52.22149        -0.69495
C         25.79382        54.21392        -1.49469
C         24.52529        54.80631        -1.94137
C         25.79467        57.01820        -2.27016
C         24.52035        56.27776        -2.36493
C         25.79002        58.41440        -2.32695
C         24.59122        59.16573        -2.47400
C         24.59576        60.56008        -2.46015
C         26.92788         8.21852         0.25401
C         28.12385        10.36491        -0.01772
C         26.93807         9.61729        -0.03991
C         28.13736        11.76556        -0.28175
C         26.87842        12.42149        -0.51012
C         28.10065        14.69205        -0.57244
C         26.88133        13.84628        -1.02057
C         28.23281        15.97338        -1.41751
C         26.89118        16.73497        -1.46249
C         28.12982        19.01076        -1.44214
C         26.83926        18.24690        -1.50061
C         28.10015        20.43735        -1.11774
C         26.84188        21.14345        -1.05128
C         28.06086        23.26480        -0.85357
C         26.83378        22.53257        -0.93865
C         28.04566        24.65469        -0.63039
C         26.85059        25.37266        -0.33175
C         28.00006        27.57273        -0.73998
C         26.82168        26.76342        -0.23627
C         28.05026        28.99057        -0.20863
C         26.84127        29.66393         0.05074
C         28.12839        31.74239         0.42808
C         26.87169        31.07472         0.33095
C         28.15034        33.20904         0.63009
C         26.88263        33.94474         0.87527
C         28.21371        36.03294         1.51832
C         26.94622        35.19344         1.74103
C         28.17094        37.48288         1.77214
C         26.95396        38.05170         2.09867
C         28.66345        40.56410         2.26641
C         26.76727        39.45583         2.41925
C         28.49197        42.04165         2.16458
C         27.03094        42.50693         1.87760
C         28.20934        44.67560         1.02100
C         26.95606        43.89435         1.27484
C         28.19884        46.14421         1.06249
C         26.96253        46.82103         1.18676
C         28.19341        49.01771         1.16846
C         26.93106        48.24758         1.05026
C         28.18464        50.50104         0.91186
C         26.92338        51.10533         0.38498
C         28.24099        53.00525        -0.59130
C         26.97190        52.36893        -0.37486
C         28.32527        54.26298        -1.43674
C         26.99414        54.93277        -1.67998
C         26.98794        56.28064        -2.06327
C         29.34560        12.50745        -0.31185
C         30.56207        14.66693        -0.37803
C         29.39920        13.91415        -0.49585
C         30.55888        16.11616        -0.46857
C         29.39918        16.79037        -0.90457
C         30.60114        18.99283        -0.70852
C         29.44584        18.22456        -1.16022
C         30.57188        20.39981        -0.77986
C         29.32205        21.11266        -0.95429
C         30.54814        23.22594        -0.87522
C         29.32574        22.54532        -0.88285
C         30.50707        24.70281        -1.14915
C         29.35514        25.35503        -0.39121
C         30.49891        27.50716        -0.72732
C         29.31399        26.84009        -0.63884
C         30.53976        28.92690        -0.32044
C         29.28364        29.66234        -0.09744
C         30.62176        31.76285         0.22153
C         29.34689        31.03838         0.26233
C         30.66075        33.12043         0.85146
C         29.39324        33.86523         1.12900
C         30.74053        36.05514         1.25969
C         29.38515        35.35999         1.29379
C         30.66049        37.55988         1.08410
C         29.54237        38.23941         1.87415
C         30.67287        40.42878         0.97820
C         29.53564        39.75422         1.60471
C         30.68940        41.86105         0.91037
C         29.54527        42.62005         1.26470
C         30.67845        44.68902         0.64036
C         29.51025        43.98645         1.02460
C         30.64388        46.12017         0.64138
C         29.44957        46.80947         0.87796
C         30.67059        48.99054         0.40691
C         29.50334        48.28159         1.01354
C         30.61169        50.36560         0.18865
C         29.52175        51.23500         0.74410
C         29.40570        52.47342        -0.11005
C         31.73624        16.86470        -0.19654
C         32.96803        19.01939        -0.08758
C         31.78052        18.28222        -0.30399
C         33.00284        20.42487        -0.26940
C         31.78314        21.12807        -0.57286
C         33.02059        23.26758        -0.62555
C         31.78916        22.54353        -0.71170
C         33.05257        24.69322        -0.79392
C         31.81463        25.42844        -0.92653
C         33.01357        27.57035        -1.14574
C         31.77367        26.80890        -0.89514
C         32.99552        29.09867        -1.18651
C         31.81771        29.69328        -0.42746
C         32.99583        31.82506        -0.79306
C         31.74541        31.16416        -0.32047
C         33.12119        33.50070         1.11777
C         31.86650        33.96711         0.73350
C         32.87887        36.07624        -0.18337
C         31.59884        35.32860         0.17089
C         32.91766        37.55941        -0.02186
C         31.73361        38.25095         0.57912
C         33.01649        40.39466         0.22955
C         31.79998        39.70658         0.57649
C         33.04357        41.80589         0.17752
C         31.85695        42.54989         0.45678
C         33.08849        44.68553         0.05061
C         31.87270        43.96865         0.40303
C         33.09346        46.07419         0.05541
C         31.95957        46.86429         0.64186
C         31.80179        48.23912         0.06707
C         34.20349        21.16098        -0.14433
C         35.45434        23.28926        -0.22180
C         34.23908        22.56496        -0.33415
C         35.49728        24.69037        -0.38826
C         34.27077        25.38373        -0.67011
C         35.55484        27.57659        -0.66491
C         34.32177        26.82163        -0.96904
C         35.54254        28.97258        -0.59631
C         34.30104        29.73340        -0.71263
C         35.51738        31.78523        -0.09193
C         34.27246        31.08323        -0.48261
C         35.52815        33.25623         0.30174
C         34.27655        34.02483         0.45863
C         35.48942        36.09897        -0.29924
C         34.16955        35.30376        -0.23000
C         35.44788        37.55544        -0.16768
C         34.23661        38.25606        -0.02075
C         35.48072        40.37845        -0.13430
C         34.24143        39.66810         0.02862
C         35.47047        41.78288        -0.24482
C         34.26755        42.51708        -0.12539
C         34.25802        43.92173        -0.23298
C         36.71566        25.42021        -0.32475
C         37.98404        27.54704        -0.30819
C         36.76813        26.83700        -0.43663
C         38.01789        28.96122        -0.34254
C         36.78191        29.68136        -0.43359
C         38.00499        31.80057        -0.28882
C         36.80264        31.10040        -0.38018
C         38.00333        33.29416        -0.48532
C         36.77058        34.00943         0.01668
C         38.00568        36.13184        -0.08975
C         36.75858        35.37953        -0.05265
C         37.95160        37.51074        -0.14024
C         36.70613        38.25036        -0.14888
C         36.69981        39.64530        -0.17752
C         39.23294        29.69609        -0.21564
C         40.46580        31.86110        -0.05497
C         39.24028        31.09406        -0.21264
C         40.47405        33.22261         0.03720
C         39.26840        34.01064        -0.07643
C         39.24512        35.38089         0.02161
O         27.32758        51.23791         1.83936
O         22.58363        50.09631        -1.49550
O         14.45607        25.81249         1.55904
O         22.26238        43.76358        -0.54934
O         23.17312        23.01817        -1.57788
O         31.50000        29.02568         0.83039
O         20.19176        46.52072         2.38786
O         14.94421        18.20323         1.02392
O         10.51483        32.12637         1.49879
O         22.54710        58.82708        -3.82195
O         24.78374         7.82790        -1.92848
O         32.99935        32.84108        -1.47530
O         21.56852        24.54410         2.23237
O         13.09076        31.72419        -0.89819
O         20.11694        26.93570         2.44506
O         14.93395        22.78692         1.39726
O         34.86092        35.48162        -1.48659
O         33.75187        27.09033        -2.32205
O         15.38200        37.26459         2.96967
O         32.66414        36.93176        -1.34370
O          7.89240        33.94488        -1.79407
O         24.51832        55.19769        -3.35610
O         22.62717        15.32033        -1.85216
O         29.04093        48.71035         2.33426
O         14.26329        41.99119        -1.20499
O         35.65620        32.21233         1.34865
O         13.22482        37.86593         1.73451
O         26.75647        17.46234        -2.72623
O         16.03868        42.11033         2.14293
O         27.78227        40.02021         3.20062
O         14.00337        29.84863         2.02678
O         16.10832        46.39928         2.01653
O         22.76038        33.20880         2.83634
O         20.38844        10.60834        -1.75742
O         30.05050        33.11607         2.19866
O         24.68970        16.35939        -2.24011
O         27.41724        44.04322        -0.10303
O         22.30807         9.23299         1.30076
O         29.01598        18.63770        -2.52516
O         26.19258        42.42487         3.07776
O         27.51852        34.01131        -0.43514
O         22.86467        18.32215         1.16667
O         16.02741        33.64136         2.83506
O         22.94496         6.34792        -1.11121
O         16.98139        17.53588        -1.79940
O         37.92542        33.43294        -1.95313
H         37.87572        34.39082        -2.16225
O         19.33817        42.39428         3.02562
H         18.38642        42.51272         3.23752
O         15.87498        27.46092        -1.35835
H         16.66549        27.99311        -1.59205
O         27.76774        27.72692        -2.18617
H         27.82174        26.83420        -2.59164
O         25.47371        23.87858        -2.33907
H         24.52649        23.84818        -2.61076
O         22.06724        48.35877         2.36515
H         21.32092        47.84400         2.76605
O         19.70767        12.17367         1.39598
H         18.93917        12.54806         1.87828
O         19.43943        22.38259         2.38257
H         20.00991        21.65338         2.72513
O         16.16097        44.67686        -1.19540
H         15.79856        43.87028        -1.62516
O         33.15299        32.38980         1.88601
H         34.09183        32.10070         2.01900
O         20.91430        20.07808         2.29190
H         21.72582        19.54794         2.46633
O         32.80224        29.49267        -2.56237
H         33.32315        28.86558        -3.11549
O         23.65190         8.35085        -2.64923
H         23.07170         7.55211        -2.74018
O         16.75322        31.37780        -0.52296
H         17.62024        31.34118        -0.98084
O         22.18536        13.41069         1.19945
H         21.39928        12.93434         1.57083
O         15.87460        24.59415        -1.61561
H         15.91004        25.55012        -1.86599
O         25.49531        14.76345         0.83124
H         25.27552        13.89873         1.23909
O         30.19518        24.86481        -2.56631
H         30.93823        24.49213        -3.08581
O         20.71300         7.61229         2.33599
H         21.09699         8.50561         2.50818
O         13.76013        35.79137        -1.28762
H         14.07031        34.86152        -1.43608
O         29.59675        25.22430         1.04388
H         30.35585        25.80034         1.27803
O         22.92552        37.40328         3.60393
H         22.64518        38.31124         3.85287
O         24.74506        42.31213        -0.24532
H         23.96610        42.79271        -0.64616
O         25.88692        23.89975         1.28812
H         26.11970        24.60340         1.92972
O         28.91067        53.93108        -2.71328
H         28.24191        53.44533        -3.23874
O         27.90219        15.20071         0.77056
H         27.92702        14.44777         1.39662
O         32.30735        47.05332         2.07428
H         31.59144        47.58874         2.48213
O         14.88280        33.47464        -0.63845
H         15.45954        32.67020        -0.70803
O         19.46256        34.19362         3.29891
H         19.43351        33.37387         3.83507
O         13.08200        33.06943         2.53998
H         12.16209        32.79235         2.75556
O         27.02256        34.71149         3.11759
H         26.69863        35.44222         3.70019
O         20.35688        23.34093        -1.01813
H         21.18493        23.24032        -1.54059
O         17.13046        38.93829        -0.76817
H         17.06753        39.68009        -1.40512
O         12.10998        29.52630        -1.91634
H         12.76395        30.20061        -2.20811
O         19.64470        37.82775        -0.67031
H         20.38603        38.38529        -0.99127
O         28.58539        15.64144        -2.78381
H         28.34839        16.43508        -3.32420
O         24.10434        31.36180        -1.22959
H         24.89133        31.03616        -1.71754
O         29.94513        51.66674         2.07300
H         29.12247        51.79793         2.59724
O         12.53621        38.07326        -1.87078
H         12.90090        37.17721        -2.07275
O         19.61522        52.86785         1.32964
H         19.48436        53.83982         1.34781
O         15.90319        31.14815         2.98108
H         15.15463        31.49232         3.51209
O         22.02361        46.44675        -0.79827
H         22.13917        45.45204        -0.93746
O         17.34381        38.69009         2.83081
H         16.67108        38.21368         3.41597
O         25.58677        37.07281         3.74509
H         24.62010        37.01137         3.98068
O         20.17481        59.21676        -0.98147
H         20.69897        58.92483        -0.20798
O         21.80819        12.72831        -2.37299
H         21.54417        11.92574        -2.87507
O         30.77701        35.20560        -1.00101
H         31.15196        35.80510        -1.68753
O         26.83991        13.69871        -2.45497
H         27.51376        14.28694        -2.87904
O          7.30152        26.96316        -0.28824
H          7.55304        27.15136         0.63876
O         29.91189        38.06250         3.28036
H         29.23956        38.54502         3.81401
O         28.78681        42.59376         3.48092
H         28.02695        42.35158         4.05873
O         10.75211        28.90301         1.39488
H          9.95953        28.42313         1.71046
O          9.34470        35.35177         1.68757
H          9.52925        36.25942         2.00987
O         31.41607        35.84408         2.52216
H         30.94626        36.39314         3.19513
O         19.58510        34.88429        -0.28222
H         19.60629        35.75203        -0.75460
H          5.14769        31.25117        -1.31289
H          4.72140        33.52415        -0.83975
H          8.01000        27.21004        -2.19692
H          6.33850        29.24995        -1.54554
H          6.13513        35.87522         0.31451
H          7.49756        38.04066        -0.73778
H          9.96479        22.64701        -1.32061
H          8.76396        24.82486        -1.42825
H          8.75094        40.06901        -0.67408
H          9.89480        42.20775        -0.41837
H         12.35146        18.35334        -1.14420
H         11.17767        20.46884        -1.13071
H         11.17214        44.42308        -0.28296
H         12.41402        46.54253        -0.32229
H         14.75039        13.86242        -0.64392
H         13.50107        16.02686        -0.82106
H         13.67111        48.73402        -0.17683
H         14.91502        50.80564        -0.32441
H         17.23034         9.56284        -0.09073
H         15.98055        11.74082        -0.53294
H         16.17619        52.85316        -0.85042
H         17.42815        54.94841        -1.27919
H         19.92699         5.35858         1.06559
H         18.55253         7.55354         0.66669
H         18.68459        57.02194        -1.64774
H         19.97039        58.79563        -2.98169
H         23.44665         2.13622         1.33771
H         21.24575         3.24862         1.29447
H         23.47211        62.39778        -2.19258
H         21.26919        61.28226        -1.99602
H         25.55884         3.39337         1.02930
H         26.71598         5.59166         0.76071
H         26.74324        58.95684        -2.23493
H         25.55856        61.08986        -2.42127
H         27.86458         7.74471         0.58633
H         29.07705         9.85301         0.18435
H         29.02892        54.98702        -0.95096
H         27.94718        56.81805        -2.10753
H         30.29262        11.96630        -0.15993
H         31.52286        14.16279        -0.19304
H         31.48354        50.86421        -0.26100
H         30.34757        53.00764        -0.30935
H         32.65238        16.32794         0.09096
H         33.89220        18.48827         0.18366
H         34.01918        46.61319        -0.19756
H         32.65875        48.73702        -0.41087
H         35.13643        20.63014         0.09596
H         36.38542        22.74253        -0.01257
H         36.41708        42.31924        -0.40596
H         35.19548        44.44755        -0.46757
H         37.65177        24.87107        -0.14689
H         38.92059        26.98801        -0.16607
H         38.88823        38.08848        -0.13924
H         37.65125        40.19375        -0.24029
H         40.18159        29.14637        -0.12376
H         41.41151        31.30524         0.02921
H         41.42405        33.75240         0.20580
H         40.17745        35.93682         0.20603
