         429
 CSIRO Nanostructure Databank - Neutral Graphene Oxide Data Set
C          1.23303         2.02598        -0.63475
C          1.22179         3.43722        -0.57305
C          2.41893         1.32375        -0.55788
C          2.40461         4.16963        -0.50927
C          1.25727         6.45605        -0.97057
C          1.30243         7.79674        -0.98027
C          2.35336         5.67795        -0.24835
C          2.41742         8.54533        -0.25235
C          1.29520        10.73906        -0.57870
C          1.29043        12.13045        -0.81420
C          2.47971        10.02592        -0.57734
C          2.46365        12.84064        -0.96933
C          1.26494        15.04766        -0.63779
C          1.28779        16.38580        -0.41853
C          2.40030        14.31271        -1.31330
C          2.44658        17.18428        -0.71309
C          2.47831        18.56684        -0.49857
C          3.65654         2.02305        -0.44257
C          3.64167         3.45692        -0.45367
C          4.88526         1.33029        -0.33806
C          4.89950         4.13646        -0.35830
C          3.65884         6.36774        -0.65861
C          3.72150         7.84172        -0.54022
C          4.93343         5.58621        -0.62398
C          4.89501         8.51685        -0.74313
C          3.72365        10.71258        -0.77014
C          3.73648        12.15755        -0.95384
C          4.93997         9.97289        -0.77110
C          4.93920        12.84620        -1.20963
C          3.70924        15.01881        -1.10245
C          3.65881        16.47097        -1.11862
C          4.97499        14.33483        -1.55491
C          4.99415        17.22970        -0.97914
C          3.67972        19.27755        -0.42207
C          4.93307        18.62255        -0.49009
C          6.11201         2.01675        -0.18614
C          6.09009         3.45543        -0.17172
C          7.35709         1.33651        -0.14610
C          7.34384         4.20399         0.20170
C          6.19857         6.31835        -0.51407
C          6.16737         7.76027        -0.87656
C          7.36745         5.64763        -0.24575
C          7.44366         8.52460        -0.72164
C          6.18197        10.66212        -0.82887
C          6.18821        12.08557        -1.20847
C          7.42191        10.00678        -0.65077
C          7.55729        12.83896        -1.15454
C          6.23845        15.05012        -1.05595
C          6.22782        16.42569        -0.79375
C          7.57803        14.36597        -1.34601
C          7.38590        17.15464        -0.38499
C          6.12321        19.25588        -0.12785
C          7.35415        18.54527        -0.08039
C          8.60405         2.03397        -0.17064
C          8.61441         3.46104        -0.12085
C          9.83709         1.34478        -0.27344
C          9.83241         4.16812        -0.19252
C          8.63384         6.33398        -0.21060
C          8.57958         7.82414        -0.00606
C          9.83206         5.63338        -0.16410
C          9.87241         8.54813        -0.27165
C          8.62122        10.72499        -0.39462
C          8.65727        12.14073        -0.47339
C          9.84754        10.01499        -0.01991
C          9.77498        12.85226         0.06392
C          8.78703        15.03254        -0.67987
C          8.69114        16.47462        -0.29524
C          9.85030        14.24108        -0.00960
C          9.70324        17.06709         0.66036
C          8.56315        19.23798         0.23972
C          9.77477        18.56691         0.46355
C         11.06783         2.04401        -0.30524
C         11.05378         3.47173        -0.26099
C         12.32041         1.36970        -0.38668
C         12.34500         4.22482        -0.45530
C         11.09327         6.31789        -0.03389
C         11.12773         7.78700        -0.08588
C         12.30245         5.64342         0.03481
C         12.31729         8.47085         0.42556
C         10.95935        10.64466         0.45219
C         10.86696        12.10882         0.81251
C         12.15157         9.86239         0.99119
C         12.19992        12.82399         0.76445
C         11.02148        14.95062         0.43457
C         11.02951        16.35574         0.54411
C         12.24331        14.21007         0.67848
C         12.24113        17.07367         0.63815
C         11.00420        19.22880         0.54654
C         12.24096        18.52103         0.61304
C         13.55527         2.05597        -0.22164
C         13.56759         3.47462        -0.02536
C         14.79207         1.37780        -0.25456
C         14.73160         4.16045         0.38080
C         13.51679         6.32817         0.37457
C         13.46377         7.75901         0.63646
C         14.70730         5.60739         0.60559
C         14.64491         8.44028         1.28411
C         13.46571        10.61172         0.94564
C         13.41059        12.07245         1.10812
C         14.65905         9.93595         1.02414
C         14.75056        12.82017         1.09814
C         13.49309        14.94240         0.74770
C         13.48409        16.36744         0.65471
C         14.72874        14.26346         0.81777
C         14.71341        17.08250         0.62116
C         13.46437        19.20480         0.54583
C         14.70345        18.51492         0.52588
C         15.99221         2.07430         0.01541
C         15.94671         3.43156         0.46600
C         17.25219         1.45445        -0.13839
C         17.17274         4.02845         1.01100
C         15.91561         6.31514         0.93859
C         15.94660         7.71776         1.01369
C         17.13354         5.56210         1.29360
C         17.17405         8.44882         0.95959
C         15.93507        10.62776         0.94995
C         15.97155        12.04270         0.86404
C         17.13927         9.86848         0.83804
C         17.18710        12.77199         0.65979
C         15.95928        14.95566         0.70486
C         15.95942        16.39352         0.64309
C         17.18105        14.20723         0.63309
C         17.18547        17.12072         0.65039
C         15.92943        19.19975         0.37340
C         17.17898        18.55442         0.44627
C         18.47013         2.10745         0.18427
C         18.46856         3.38555         0.81563
C         19.67803         1.41493        -0.10111
C         19.71849         3.90687         1.53444
C         18.43235         6.30930         1.44664
C         18.43917         7.74647         1.04362
C         19.74273         5.53184         1.59265
C         19.65644         8.42761         0.95783
C         18.37244        10.59319         0.48993
C         18.41193        12.06450         0.55429
C         19.69332         9.84510         0.54082
C         19.64508        12.75217         0.47536
C         18.41479        14.90446         0.52324
C         18.40630        16.35240         0.69746
C         19.62586        14.17323         0.43844
C         19.60430        16.96408         1.03992
C         18.35108        19.36777         0.15862
C         19.62173        19.14019         0.67441
C         20.92401         1.98406         0.22262
C         20.96837         3.20289         0.97760
C         22.13769         1.31836        -0.13502
C         22.25012         3.63597         1.28709
C         20.96286         6.38423         1.41700
C         20.89665         7.75464         1.18194
C         22.27726         5.83295         1.55273
C         22.18581         8.53975         1.35651
C         20.94223        10.63397         0.67009
C         20.91904        12.04631         0.51677
C         22.15623         9.96499         0.87720
C         22.15436        12.76542         0.57429
C         20.90145        14.88400         0.30436
C         20.87998        16.37326         0.69232
C         22.17907        14.19265         0.50322
C         22.13925        16.95974         1.11062
C         20.87371        19.67654         0.25298
C         22.11674        19.15254         0.67525
C         23.38271         1.92708         0.02381
C         23.43050         3.18671         0.65600
C         24.66870         1.27352        -0.43612
C         24.59557         4.08231         0.38693
C         23.41248         6.39077         0.98743
C         23.41890         7.81432         0.85005
C         24.57850         5.58700         0.52650
C         24.59993         8.50684         0.65963
C         23.38908        10.65690         0.81301
C         23.39708        12.07479         0.69327
C         24.63701         9.93951         0.79383
C         24.63461        12.78959         0.74732
C         23.37492        14.92257         0.63811
C         23.34086        16.35784         0.84857
C         24.63287        14.21967         0.74626
C         24.57033        17.19272         0.97611
C         23.39394        19.37215         0.13900
C         24.57605        18.60433         0.45016
C         25.93112         1.99490         0.01760
C         25.90974         3.40625         0.25279
C         27.14014         1.32074         0.02967
C         27.09800         4.14668         0.29073
C         25.87001         6.30377         0.48354
C         25.84777         7.79539         0.20660
C         27.05568         5.60939         0.36433
C         27.10858         8.49591         0.66013
C         25.86499        10.62781         0.86526
C         25.87324        12.07921         0.89541
C         27.09632         9.86639         0.90180
C         27.07721        12.81060         0.99714
C         25.84693        14.93428         0.85235
C         25.86748        16.41247         0.94538
C         27.08939        14.23884         0.91567
C         27.10513        17.09791         0.55837
C         25.81064        19.17337         0.15610
C         27.07133        18.48684         0.25674
C         28.37776         2.02178         0.16634
C         28.35567         3.45519         0.20117
C         29.62122         1.35016         0.17498
C         29.57650         4.16326         0.08780
C         28.29717         6.36089         0.29697
C         28.32153         7.72878         0.56303
C         29.52253         5.62748        -0.07445
C         29.62449         8.39194         0.77447
C         28.33754        10.58734         1.28567
C         28.32759        12.08633         1.32008
C         29.67058         9.89964         1.16307
C         29.64303        12.81428         1.25860
C         28.31803        14.97849         0.87220
C         28.32355        16.37302         0.57054
C         29.61592        14.30814         1.05489
C         29.55494        17.06476         0.32771
C         28.28525        19.15412         0.00398
C         29.53025        18.47244         0.05798
C         30.83617         2.05655         0.16416
C         30.81671         3.48763         0.05948
C         32.10277         1.38848         0.28481
C         32.07134         4.19869        -0.01779
C         30.83739         6.38105        -0.12837
C         30.82626         7.76904         0.29930
C         32.10341         5.62389        -0.04680
C         32.08816         8.49338         0.49158
C         30.86226        10.67610         0.82171
C         30.87395        12.08210         0.86015
C         32.03047         9.96903         0.15940
C         32.07595        12.80436         0.66113
C         30.84995        14.97420         0.61193
C         30.80652        16.36301         0.33211
C         32.07419        14.24093         0.53638
C         32.02013        17.07119         0.11096
C         30.74867        19.16086        -0.15576
C         31.99350        18.48872        -0.11487
C         33.29660         2.07684         0.28322
C         33.30275         3.50220         0.07832
C         34.58364         1.34180         0.60446
C         34.53855         4.21091        -0.07931
C         33.31528         6.31326        -0.03135
C         33.36550         7.75815         0.23951
C         34.55049         5.63218        -0.22068
C         34.57013         8.51368        -0.13791
C         33.36697        10.62677         0.37637
C         33.39323        12.07255         0.83752
C         34.53507         9.94596         0.18070
C         34.58740        12.79237         0.26621
C         33.26860        14.94590         0.23089
C         33.26613        16.36636         0.11753
C         34.48442        14.19806        -0.25271
C         34.48231        17.08927        -0.01515
C         33.21400        19.17567        -0.30011
C         34.45717        18.49879        -0.23439
C         35.84807         2.11316         0.28887
C         35.77845         3.50116        -0.04876
C         37.08181         1.49341         0.38424
C         36.96003         4.20465        -0.38898
C         35.72680         6.36852        -0.61176
C         35.67793         7.84479        -0.64569
C         36.88527         5.56571        -0.84035
C         36.80736         8.75982        -1.04045
C         35.84824        10.64138         0.51480
C         35.79649        12.13458         0.23201
C         36.94642        10.08963        -0.36103
C         37.01879        12.82739        -0.04454
C         35.78727        14.94053        -0.09532
C         35.79293        16.40135         0.26278
C         36.98638        14.24697        -0.13971
C         36.99594        17.12522        -0.28930
C         35.67590        19.21254        -0.40095
C         36.92402        18.54500        -0.49017
C         38.29819         2.19761         0.11871
C         38.22966         3.55198        -0.32384
C         39.57398         1.59454         0.26996
C         39.43277         4.24544        -0.66012
C         38.07074         6.02102        -1.49345
C         38.08495         8.21844        -1.53765
C         39.33724         5.52563        -1.29874
C         39.32256         8.64275        -1.15906
C         38.28671        10.69696        -0.24933
C         38.34173        12.13027         0.22874
C         39.41720        10.01035        -0.63167
C         39.52763        12.85773        -0.36975
C         38.29581        14.99805         0.00925
C         38.20284        16.43945        -0.46433
C         39.47665        14.21806        -0.53211
C         39.35891        17.15013        -0.86374
C         38.11940        19.25943        -0.72416
C         39.34270        18.58131        -0.89849
C         40.73964         2.29586        -0.01504
C         40.69005         3.62140        -0.50007
C         41.87482         4.36002        -0.90798
C         40.54142         6.32975        -1.78539
C         40.57689         7.75725        -1.08238
C         41.81998         5.57821        -1.48977
C         41.78240         8.58417        -1.45826
C         40.69695        10.69784        -0.76282
C         40.72846        12.09600        -0.69037
C         41.82983         9.91898        -1.23318
C         41.93321        12.85238        -0.95454
C         40.61491        14.91088        -1.17713
C         40.57568        16.45195        -1.30685
C         41.89711        14.18858        -1.17931
C         41.79914        17.22992        -1.45767
C         40.56276        19.28918        -1.10652
C         41.76708        18.60713        -1.32742
O         36.42629         9.99508        -1.75064
O         16.93960         4.60780         2.35776
O         32.90356         8.09116         1.62935
O          4.38502        17.05656        -2.28411
O         19.62731        18.17300         1.72689
O         10.62907         8.21250        -1.46253
O         29.81310        13.69203         2.40632
O         40.28998        15.53833        -2.45923
O          4.23048         5.89274        -1.90900
O         29.83641         8.87909         2.18245
O         20.91915        15.91760        -0.72142
O         14.06025        12.50283         2.36029
O         25.29931        16.96283         2.21586
O         28.20298        11.29857         2.56200
O         22.09726        18.20657         1.73224
O          7.04333         8.03815        -2.03354
O         24.28936         4.94091        -0.79272
O         30.06738         6.09141        -1.36919
O         19.02246         6.03351         2.76367
O          9.31961        16.09046        -1.55231
O          2.19073         5.80713         1.15144
O          7.08299        12.22839        -2.37927
O         19.01436        10.06602        -0.74033
O         37.93381         7.10723        -2.37043
O         22.40431         4.63891         2.24733
O         40.47663         6.53375        -3.20766
H         39.56779         6.85031        -3.41719
O         25.83143         7.90562        -1.26440
H         26.52088         7.30374        -1.61820
O         24.68898        -0.10143        -0.04086
H         24.55862        -0.14663         0.92822
O          2.15322        14.38216        -2.76734
H          3.00103        14.13250        -3.20970
O          4.98300        14.42906        -3.03828
H          4.95819        15.39823        -3.23880
O          7.75117        14.60205        -2.76254
H          7.09135        14.03444        -3.22851
O         40.69790         7.44509         0.33456
H         40.77195         8.28982         0.82731
O         22.36646         8.65444         2.81401
H         22.32559         7.75012         3.19380
O         38.52409        12.15280         1.67597
H         38.55369        13.10680         1.93420
O          7.32621         4.29080         1.68230
H          7.23567         3.37672         2.02776
O         14.44414         8.31934         2.73079
H         13.57874         8.75495         2.93232
O         10.49555        12.11533         2.25203
H         10.57331        13.04020         2.57252
O         19.59363         3.49433         2.90935
H         18.89421         4.06200         3.31309
O         31.73646        10.01060        -1.27845
H         31.89864        10.92439        -1.59564
O         33.63701        12.02527         2.29440
H         32.81798        11.68955         2.72040
O         38.51351        15.08285         1.46487
H         37.70707        15.52693         1.83629
O         34.60851         0.05662        -0.03061
H         34.64678         0.19423        -0.99907
O          8.33234         8.02298         1.42339
H          7.79060         7.27517         1.75575
O          2.16975         8.45064         1.17407
H          2.10110         7.46514         1.38559
O         36.13456        10.39967         1.90139
H         35.45472        10.88637         2.42260
O         11.87459         9.65889         2.42435
H         11.44332        10.48882         2.74978
O         34.24449        14.05664        -1.72187
H         35.01555        13.57428        -2.09273
O         12.49461         4.35138        -1.92805
H         11.76163         4.92196        -2.24735
O         35.98153        16.43100         1.75098
H         35.85127        17.36024         2.04082
O          9.20509        16.83046         2.01311
H          9.79267        17.30636         2.63690
H          0.27919         1.48459        -0.70843
H          0.25416         3.95864        -0.56286
H          2.42050         0.22416        -0.56574
H          0.42868         5.92296        -1.46335
H          0.51076         8.37518        -1.48257
H          0.34153        10.22581        -0.39673
H          0.32043        12.64164        -0.87254
H          0.35551        14.49088        -0.37248
H          0.41066        16.88601         0.01948
H          1.53516        19.08940        -0.28210
H          4.88703         0.23046        -0.38272
H          3.65915        20.34481        -0.15982
H          7.36556         0.23675        -0.18257
H          6.10776        20.32225         0.14266
H          9.83857         0.24601        -0.32188
H          8.54305        20.33829         0.26581
H         12.33267         0.27582        -0.49979
H         11.03080        20.32474         0.44509
H         14.82985         0.30944        -0.50987
H         13.46383        20.30338         0.48129
H         17.29627         0.42738        -0.52885
H         15.90539        20.28897         0.21873
H         19.63169         0.43785        -0.60122
H         18.19119        20.24742        -0.48339
H         22.07383         0.33435        -0.62102
H         20.86764        20.41020        -0.56551
H         24.68780         1.27608        -1.56167
H         23.52956        20.22723        -0.54160
H         27.15226         0.23263        -0.13182
H         25.83549        20.21686        -0.19358
H         29.63662         0.25017         0.18829
H         28.27473        20.22918        -0.22879
H         32.11352         0.29701         0.42321
H         30.72737        20.24283        -0.35291
H         34.57688         1.13610         1.71288
H         33.20258        20.26019        -0.48253
H         37.13069         0.43224         0.67041
H         35.64173        20.30194        -0.54305
H         39.63424         0.55524         0.62420
H         38.09227        20.35648        -0.78750
H         41.71586         1.80497         0.10992
H         42.85241         3.87537        -0.75923
H         42.75998         6.04467        -1.82127
H         42.67720         8.08148        -1.85324
H         42.76083        10.45176        -1.47533
H         42.89828        12.32992        -1.00642
H         42.81768        14.72586        -1.44498
H         42.72954        16.72701        -1.75204
H         40.54989        20.38781        -1.09366
H         42.69374        19.18280        -1.46223
