         334
 CSIRO Nanostructure Databank - Neutral Graphene Oxide Data Set
C         30.43191        57.04843        -0.63102
C         30.40455        58.53856        -0.43968
C         29.22342        59.19698        -1.09853
C         30.45216        61.29316        -1.26597
C         29.26795        60.52142        -1.42965
C         32.88892        52.80385        -0.26465
C         32.86599        54.21483        -0.34326
C         31.64270        54.92310        -0.53564
C         32.92932        57.02560        -0.96991
C         31.60977        56.33344        -0.68868
C         32.87810        58.53403        -0.86781
C         31.70779        59.21652        -0.80549
C         32.88641        61.39466        -0.91846
C         31.68329        60.67514        -0.98222
C         35.38419        48.55676         0.13656
C         35.35295        49.96545         0.17174
C         34.12917        50.68098         0.02057
C         35.32256        52.83450         0.06562
C         34.09822        52.09373        -0.05219
C         35.30851        54.25870        -0.02271
C         34.09102        54.94103        -0.19546
C         35.36751        57.12304        -0.33953
C         34.03775        56.44644        -0.08464
C         35.39278        58.53038        -0.55346
C         34.18810        59.25654        -1.12314
C         35.26103        61.40346        -0.35812
C         34.13791        60.72457        -0.75209
C         37.25560        44.20967         1.52907
C         37.60272        45.68646         1.19949
C         36.59806        46.36844         0.61073
C         37.70817        48.59018         0.97727
C         36.67840        47.79593         0.13950
C         37.87642        49.99210         0.37487
C         36.56229        50.72715         0.35858
C         37.76502        52.88616         0.45685
C         36.55243        52.13712         0.30676
C         37.78310        54.28461         0.26281
C         36.55002        54.99837         0.04799
C         37.86345        57.10670        -0.45428
C         36.55802        56.39995        -0.14091
C         37.81516        58.58643        -0.10465
C         36.57054        59.25153        -0.30416
C         37.79611        61.42339        -0.26079
C         36.51714        60.71199         0.08044
C         40.13298        40.35688         0.12641
C         40.08151        41.57492         0.75931
C         38.80741        42.30294         0.68967
C         40.35585        44.40335         1.90847
C         38.45339        43.31567         1.51570
C         40.21346        45.76449         1.68912
C         38.83282        46.44148         1.78623
C         40.15849        48.62279         1.70000
C         38.98347        47.82581         1.16951
C         40.17993        50.06294         1.25234
C         39.04061        50.73705         0.96700
C         40.27037        52.91033         0.63451
C         38.99115        52.23776         1.04138
C         40.26316        54.25930         0.39366
C         39.03502        54.98922         0.26687
C         40.23737        57.12569         0.35062
C         39.08430        56.41715         0.10605
C         40.24300        58.61847         0.54934
C         38.98545        59.30101         0.07696
C         40.26488        61.39748        -0.25216
C         39.00259        60.74272        -0.14290
C         42.55339        36.65358        -2.08022
C         42.57073        37.75325        -1.19202
C         41.34859        38.35710        -0.76954
C         42.56672        40.12856         0.34684
C         41.34794        39.58579        -0.05749
C         42.62902        41.46387         0.95128
C         41.34994        42.18057         1.29217
C         42.69052        44.34296         1.35442
C         41.48433        43.65546         1.49144
C         42.68420        45.77718         1.46669
C         41.44094        46.49071         1.48885
C         42.70149        48.60282         1.54762
C         41.48349        47.91506         1.52677
C         42.70857        50.10178         1.79906
C         41.50184        50.72927         1.13728
C         42.79512        52.91915         0.89084
C         41.53716        52.16043         0.73822
C         42.78574        54.27988         0.58479
C         41.54053        55.00340         0.12053
C         42.76440        57.14614         0.29848
C         41.50860        56.41084         0.73572
C         42.71872        58.57617         0.03805
C         41.51952        59.27959         0.07067
C         42.71984        61.38951        -0.34156
C         41.49578        60.70342        -0.17987
C         44.90668        34.43618        -3.93641
C         43.72794        34.97784        -3.45812
C         45.01547        36.61771        -2.14714
C         43.75482        36.08012        -2.55682
C         45.05590        37.71804        -1.19340
C         43.82446        38.27362        -0.74866
C         45.10115        40.04912         0.48567
C         43.80249        39.27384         0.38210
C         45.12623        41.39462         0.65860
C         43.86641        42.24116         0.53342
C         45.12903        44.29863         1.25301
C         43.94632        43.63945         1.11565
C         45.19332        45.72977         1.75242
C         43.91245        46.49088         1.49142
C         45.22183        48.61861         1.47297
C         43.93984        47.89305         1.49900
C         45.19750        50.07553         1.47116
C         44.01537        50.79870         1.44359
C         45.21671        52.97120         1.04985
C         44.01076        52.23478         1.18511
C         45.21949        54.33272         0.65908
C         43.98939        55.01287         0.49951
C         45.17533        57.06793        -0.37304
C         43.93793        56.43652         0.20137
C         45.18375        58.57064        -0.24714
C         43.97151        59.26875        -0.19441
C         45.18534        61.39624        -0.42644
C         43.96061        60.70880        -0.31584
C         46.14518        34.97842        -3.54385
C         47.53474        36.67251        -2.31029
C         46.20507        36.05623        -2.65966
C         47.53422        37.33671        -0.92322
C         46.29162        38.16652        -0.68738
C         47.66594        39.94611         0.50646
C         46.34609        39.16590         0.44573
C         47.68489        41.41464         0.80217
C         46.39662        42.15453         0.67527
C         47.68977        44.18174         1.54307
C         46.40995        43.62480         0.93286
C         47.69464        45.71839         1.58840
C         46.41883        46.43127         1.14212
C         47.70849        48.62530         1.24972
C         46.42731        47.93609         1.36308
C         47.74416        50.07009         1.24499
C         46.49362        50.78845         1.50893
C         47.74308        52.96329         0.89112
C         46.49976        52.31193         1.33037
C         47.71075        54.35097         0.54709
C         46.46968        55.05105         0.44510
C         47.67279        57.10917        -0.13140
C         46.45721        56.40389         0.06752
C         47.65635        58.55455        -0.34633
C         46.42406        59.26260        -0.34388
C         47.64717        61.40379        -0.43777
C         46.42028        60.70731        -0.40720
C         48.80157        38.14045        -0.76283
C         50.06908        40.13756        -0.14812
C         48.87616        39.36321        -0.12784
C         50.11220        41.51461         0.19311
C         48.92224        42.21061         0.60555
C         50.14970        44.31805         0.79985
C         48.93611        43.56963         0.91228
C         50.21926        45.71705         1.09417
C         48.98242        46.45935         1.46732
C         50.17927        48.65847         1.29378
C         48.91399        47.92394         1.23616
C         50.19150        50.09144         0.98527
C         48.93923        50.79055         1.04298
C         50.17022        52.90139         0.52525
C         48.93746        52.22792         0.84258
C         50.16500        54.29985         0.25921
C         48.92354        55.03104         0.23940
C         50.13553        57.09317        -0.59311
C         48.89581        56.41180        -0.07169
C         50.12993        58.58560        -0.37475
C         48.88467        59.27240        -0.38825
C         50.10963        61.41815        -0.37944
C         48.87983        60.71812        -0.40464
C         51.30580        42.25326         0.07929
C         52.54676        44.36256         0.20280
C         51.33967        43.63691         0.35953
C         52.59810        45.74012         0.43820
C         51.41342        46.41505         0.89047
C         52.66027        48.61538         0.64881
C         51.49574        47.86872         1.14585
C         52.62147        49.99242         0.52278
C         51.40232        50.74334         0.70474
C         52.61077        52.87157         0.26345
C         51.39637        52.17469         0.48458
C         52.60155        54.26688         0.07386
C         51.39535        54.98495         0.02932
C         52.59764        57.13444        -0.13228
C         51.41557        56.41726        -0.18646
C         52.59471        58.59202        -0.19954
C         51.33672        59.29242        -0.31246
C         52.57736        61.43143        -0.26229
C         51.33913        60.73699        -0.30658
C         53.81677        46.47211         0.26103
C         55.10177        48.56925         0.21726
C         53.86924        47.86247         0.33509
C         55.13124        49.96851         0.18076
C         53.82347        50.68277        -0.08823
C         55.07309        52.82161         0.28656
C         53.87941        52.15417         0.21491
C         55.05363        54.31424         0.51779
C         53.90390        54.94906        -0.26278
C         55.05767        57.12057         0.03017
C         53.87100        56.44375        -0.04656
C         55.07303        58.60996         0.25688
C         53.77922        59.30262        -0.09079
C         55.04873        61.44179        -0.20814
C         53.80278        60.74535        -0.17758
C         56.32988        50.69531         0.23537
C         57.54526        52.84400         0.26640
C         56.34978        52.12030         0.25573
C         57.58106        54.28170         0.18842
C         56.35554        55.00465         0.19976
C         57.54939        57.09363        -0.17008
C         56.33437        56.40078         0.01655
C         57.53403        58.52007        -0.52367
C         56.23958        59.28928        -0.42553
C         57.51544        61.41330        -0.50034
C         56.28404        60.77059        -0.34439
C         58.79242        54.99333         0.06219
C         60.00265        57.14584        -0.25713
C         58.79864        56.40262        -0.11061
C         60.01328        58.56043        -0.40949
C         58.78563        59.27615        -0.51902
C         59.99721        61.38539        -0.62132
C         58.75805        60.69563        -0.57536
C         61.22980        59.29657        -0.46100
C         61.20510        60.68421        -0.58030
O         47.83098        40.43932         1.88816
O         37.93800        57.08187        -1.86104
O         39.33258        43.68789         2.53835
O         56.63447        58.76579        -1.70708
O         41.72288        51.07545        -0.27644
O         48.34733        46.17076         2.79799
O         51.01205        48.28139         2.45720
O         46.48827        43.13124        -0.44572
O         42.13017        41.47331         2.32770
O         46.58494        51.70633         2.66169
O         46.35103        38.34300         1.67273
H         46.74701        38.91821         2.37301
O         46.37972        46.23711        -0.29699
H         45.55995        46.64976        -0.64208
O         43.69770        42.44298        -0.90608
H         44.54258        42.83668        -1.22991
O         47.82103        37.65640        -3.31540
H         48.58387        38.19224        -3.01117
O         34.40393        59.23385        -2.56980
H         34.42485        58.28289        -2.83393
O         54.78866        54.55345         1.93148
H         55.48180        54.09267         2.44889
O         45.11328        56.79387        -1.82554
H         44.19704        56.98612        -2.12075
O         43.66218        38.47777         1.61036
H         44.56397        38.12653         1.82438
O         38.87661        52.50407         2.50470
H         38.85995        53.47844         2.62466
O         54.16518        54.70979        -1.67315
H         53.45165        55.14178        -2.18847
O         42.53125        50.30770         3.22933
H         43.26265        49.85252         3.69696
O         47.51871        36.26292         0.06544
H         47.29340        36.68043         0.92962
O         40.24075        58.80415         2.01770
H         40.79880        58.08386         2.40065
O         41.53263        56.30873         2.19327
H         42.39112        55.90813         2.45103
O         45.39421        45.71222         3.18791
H         44.65658        45.21355         3.59671
O         37.10091        48.78559         2.29427
H         37.24464        47.94721         2.80267
O         38.48978        46.56701         3.20753
H         39.16108        47.19677         3.58450
O         33.65480        56.76827         1.28928
H         34.30293        56.34702         1.89216
O         38.26116        49.94757        -1.03277
H         37.65156        49.31837        -1.49691
O         30.23719        58.74176         1.01175
H         31.03088        58.36450         1.44915
O         33.30275        56.70607        -2.34201
H         32.53129        56.89327        -2.91699
O         47.65325        43.71290         2.91317
H         48.09811        44.40333         3.46075
O         53.61307        50.59039        -1.54353
H         54.32123        51.11561        -1.97377
O         41.65527        55.19424        -1.31290
H         41.49161        54.33269        -1.75036
O         50.07778        56.91098        -2.06225
H         49.21856        57.27639        -2.36545
O         55.30132        58.82275         1.68951
H         54.56692        58.39248         2.17635
O         36.26646        43.69244         0.64789
H         35.37866        43.88474         1.00722
O         37.12642        47.67200        -1.25656
H         37.99879        47.22048        -1.23414
O         39.97427        48.74543         3.17511
H         39.22166        49.36611         3.30783
O         36.44629        60.69531         1.56740
H         37.32954        60.41709         1.89558
H         29.49131        56.50514        -0.44379
H         28.29863        58.61662        -1.23129
H         30.42360        62.37516        -1.45959
H         28.36975        61.01683        -1.82755
H         31.94901        52.24312        -0.37574
H         30.69365        54.36749        -0.49046
H         32.86003        62.49543        -0.91677
H         34.43403        48.00423         0.06715
H         33.19120        50.11797        -0.09538
H         35.18925        62.48450        -0.15572
H         36.85342        44.20520         2.58310
H         35.70693        45.80668         0.28154
H         37.78364        62.50672        -0.45056
H         39.20612        39.94738        -0.30348
H         38.08281        41.96773        -0.06644
H         40.28174        62.48584        -0.41586
H         41.58868        36.24239        -2.41375
H         40.39544        37.92415        -1.10761
H         42.70949        62.47976        -0.49025
H         44.88125        33.58513        -4.63110
H         42.75719        34.56549        -3.76891
H         45.18331        62.49309        -0.51220
H         47.07714        34.54903        -3.93875
H         48.33692        35.87920        -2.32495
H         47.64223        62.50364        -0.46309
H         49.72045        37.73448        -1.21747
H         50.98522        39.66802        -0.53681
H         50.10037        62.51812        -0.40043
H         52.22927        41.74789        -0.23928
H         53.45023        43.83409        -0.13501
H         52.57468        62.53078        -0.30829
H         54.73099        45.91133         0.01662
H         56.04389        47.99987         0.22153
H         55.03498        62.54225        -0.22797
H         57.28436        50.15082         0.30455
H         58.50006        52.29738         0.25155
H         57.55135        62.51327        -0.49422
H         59.74691        54.44743         0.07111
H         60.96357        56.61098        -0.22031
H         60.00068        62.48322        -0.67740
H         62.18776        58.76123        -0.40007
H         62.15252        61.24019        -0.62097
