         429
 CSIRO Nanostructure Databank - Neutral Graphene Oxide Data Set
C          1.47940         3.91531         2.82900
C          0.27817         4.60660         2.90817
C          1.27719         6.52702         1.76879
C          0.17658         5.90233         2.39343
C          1.17908         7.86857         1.22661
C          0.12869         8.70542         1.55368
C          1.06651        10.63466         0.36671
C          0.04234        10.04172         1.10493
C          1.07939        12.03914         0.10341
C         -0.13900        12.82571         0.14929
C          1.14095        14.95692         0.20206
C         -0.14996        14.18031         0.10440
C          1.11996        16.40024        -0.26823
C         -0.06536        17.13173        -0.29239
C          1.12448        19.18898        -0.87351
C         -0.07265        18.49646        -0.58835
C          1.11030        20.64539        -1.07807
C         -0.09526        21.37916        -1.07367
C          1.09871        23.49987        -0.93325
C         -0.10534        22.76654        -1.02824
C          1.11812        24.96448        -0.82894
C         -0.08280        25.70814        -0.87899
C          1.12524        27.81964        -0.70673
C         -0.07501        27.09478        -0.79010
C          1.13134        29.26164        -0.47173
C         -0.06307        29.92554        -0.10448
C          1.13641        32.01330         0.15606
C         -0.05651        31.28245         0.18922
C          1.08158        33.45989         0.56613
C          0.23029        34.29108        -0.36406
C          1.28225        36.37982         0.35619
C          0.28345        35.66725        -0.34740
C          1.31006        37.77811         0.54729
C          3.84760         3.81293         2.17674
C          2.61375         4.51730         2.22622
C          3.67943         6.45417         1.06859
C          2.51454         5.83137         1.68045
C          3.57333         7.69034         0.43054
C          2.19582         8.28313         0.18599
C          3.52306        10.53465        -0.34713
C          2.21698         9.80447        -0.07186
C          3.52586        12.01319        -0.28205
C          2.30513        12.69830        -0.18948
C          3.57693        14.88790        -0.59399
C          2.27354        14.16019        -0.41750
C          3.58586        16.36371        -0.54830
C          2.35838        17.07618        -0.55446
C          3.59441        19.16710        -1.35261
C          2.34125        18.47949        -0.84762
C          3.60495        20.66005        -1.13963
C          2.32727        21.36744        -1.13225
C          3.59701        23.47365        -0.81186
C          2.30676        22.77698        -1.00358
C          3.61920        24.96988        -0.67335
C          2.33459        25.67839        -0.74500
C          3.60545        27.80213        -0.82760
C          2.36326        27.10306        -0.75990
C          3.56997        29.28992        -1.07834
C          2.33979        29.98270        -0.52926
C          3.57913        32.12362        -0.19853
C          2.35596        31.37114        -0.19873
C          3.59776        33.50098         0.19194
C          2.41604        34.14487         0.57201
C          3.69747        36.30511         0.92616
C          2.39165        35.57948         1.01335
C          3.68927        37.69712         1.16696
C          2.44249        38.40751         1.04970
C          6.23933         3.68217         1.65317
C          5.00038         4.40198         1.64612
C          6.11857         6.35320         0.62616
C          4.93378         5.73506         1.11377
C          6.04732         7.61516         0.02109
C          4.73421         8.25507        -0.37004
C          5.98483        10.48003        -0.43263
C          4.81108         9.79014        -0.32307
C          6.02593        11.95505        -0.19352
C          4.76741        12.73242        -0.32234
C          6.07335        14.87178        -0.24123
C          4.81475        14.11335        -0.43592
C          6.08317        16.35963        -0.45784
C          4.85018        16.99047        -1.06896
C          6.06651        19.15786        -0.77913
C          4.88714        18.49137        -0.95551
C          6.05616        20.64119        -0.77272
C          4.79518        21.32601        -1.14057
C          6.09094        23.54123        -1.13199
C          4.80418        22.81088        -1.41759
C          6.08552        24.92793        -1.06834
C          4.87774        25.68833        -0.93327
C          6.08145        27.86296        -1.01354
C          4.85753        27.11709        -0.94894
C          6.07641        29.27946        -0.78692
C          4.86245        29.96794        -0.70764
C          6.12982        32.12839        -0.25407
C          4.82435        31.43236        -0.57215
C          6.06877        33.49549         0.29868
C          4.86860        34.21336         0.36333
C          6.14947        36.31208         0.87770
C          4.90517        35.60792         0.73965
C          6.14955        37.68758         1.33858
C          4.91816        38.34857         1.44194
C          8.67200         3.55717         1.25040
C          7.41916         4.24445         1.17388
C          8.54362         6.18258         0.20789
C          7.38299         5.60966         0.66702
C          8.55845         7.63686        -0.03153
C          7.26673         8.26567        -0.43269
C          8.55139        10.50408        -0.56248
C          7.27846         9.78143        -0.64740
C          8.52524        11.98000        -0.85905
C          7.33077        12.69154        -0.26734
C          8.54545        14.85508        -0.54649
C          7.35886        14.17341        -0.37330
C          8.57864        16.31618        -0.67421
C          7.37210        17.04912        -0.67757
C          8.59575        19.16232        -0.83051
C          7.37055        18.46601        -0.75229
C          8.66825        20.65006        -0.50694
C          7.34256        21.40110        -0.71849
C          8.63211        23.53002        -1.20621
C          7.35198        22.76048        -1.42038
C          8.62847        24.90009        -1.23565
C          7.35353        25.65274        -1.34421
C          8.66758        27.94635        -1.30302
C          7.34682        27.16387        -1.33592
C          8.57454        29.25886        -0.55527
C          7.35352        29.95621        -0.51451
C          8.54262        31.93693         0.32372
C          7.35853        31.32071        -0.10427
C          8.50246        33.32674         0.81815
C          7.28601        34.12898         0.62379
C          8.63474        36.13525         0.65194
C          7.33914        35.52908         0.75149
C          8.61124        38.14824         1.39768
C          7.33552        38.37209         1.86771
C         11.13667         3.50586         0.95450
C          9.86936         4.11957         0.79487
C         11.11620         6.20471        -0.07259
C          9.81013         5.44170         0.14045
C         11.12563         7.67144        -0.21251
C          9.83145         8.38404        -0.19761
C         11.01062        10.50823        -0.50598
C          9.79097         9.82759        -0.54608
C         10.99748        11.94537        -0.22525
C          9.78689        12.71788        -0.49321
C         11.06230        14.81116        -0.43420
C          9.80068        14.09745        -0.48700
C         11.04910        16.23041        -0.89530
C          9.79585        17.01446        -0.85833
C         11.07821        19.17299        -1.03962
C          9.83003        18.44190        -0.93074
C         11.11892        20.58836        -1.08179
C          9.87836        21.36576        -1.07435
C         11.12588        23.48958        -1.39723
C          9.85865        22.73626        -1.25045
C         11.11237        24.90532        -1.05665
C          9.91099        25.69814        -1.45732
C         11.03279        27.74465        -0.50134
C          9.87580        27.11177        -0.91563
C         11.03271        29.17802        -0.21402
C          9.78901        29.89679        -0.17929
C         11.03145        31.94319         0.50384
C          9.78440        31.25056         0.27289
C         11.06383        33.33942         0.78899
C          9.81046        34.04337         1.08132
C         11.06103        36.24016         1.15201
C          9.82326        35.51271         0.94940
C         11.05990        37.64023         1.62674
C          9.92164        38.41518         1.91941
C         13.61092         3.54322         0.97765
C         12.35324         4.18265         0.71796
C         13.57497         6.28419         0.21578
C         12.37346         5.55503         0.31114
C         13.58013         7.67780        -0.13258
C         12.31324         8.35712        -0.28524
C         13.56842        10.55671        -0.36860
C         12.31389         9.79643        -0.74615
C         13.57658        11.94425        -0.29823
C         12.30776        12.68561        -0.08443
C         13.54623        14.85003        -0.19051
C         12.25682        14.13861        -0.29364
C         13.57308        16.31750        -0.50375
C         12.33878        16.95246        -1.07149
C         13.62714        19.14179        -0.79809
C         12.38732        18.45596        -1.35040
C         13.60928        20.56434        -0.79306
C         12.37686        21.26564        -1.03645
C         13.60525        23.47418        -0.73398
C         12.42209        22.71934        -1.21139
C         13.56906        24.81956        -0.45640
C         12.23294        25.51195        -0.28544
C         13.48636        27.66364        -0.16857
C         12.29011        27.01463        -0.38089
C         13.47732        29.08893         0.19832
C         12.22507        29.84651         0.09337
C         13.50715        31.97878         0.40542
C         12.25927        31.24932         0.36113
C         13.50503        33.40108         0.55681
C         12.25730        34.07991         0.80060
C         13.55804        36.06969         1.54951
C         12.23771        35.49535         1.11758
C         13.54092        37.55954         1.74681
C         12.33490        38.22175         1.93284
C         16.07377         3.56612         1.10533
C         14.81218         4.20811         0.80828
C         16.03010         6.27207         0.17511
C         14.82879         5.60333         0.40347
C         16.05818         7.67413        -0.13806
C         14.80124         8.39154        -0.24488
C         16.03373        10.54494        -0.41512
C         14.80366         9.82743        -0.36499
C         16.06343        11.95214        -0.40702
C         14.81545        12.68010        -0.31173
C         16.06679        14.80575        -0.08278
C         14.80253        14.07511        -0.23227
C         16.07723        16.30631        -0.25878
C         14.87921        16.97211        -0.90221
C         16.06617        19.14030        -0.39865
C         14.84078        18.45997        -0.64854
C         16.03669        20.55804        -0.35791
C         14.84532        21.25413        -0.63533
C         16.12598        23.46912        -0.47928
C         14.87691        22.72562        -0.77008
C         16.05032        24.84078         0.13385
C         14.77762        25.57927        -0.19731
C         16.02571        27.71290        -0.13380
C         14.76274        26.96284        -0.11040
C         16.02518        29.14399        -0.12529
C         14.79229        29.84840         0.25210
C         15.95142        32.03709         0.02345
C         14.74577        31.31661         0.20835
C         15.93339        33.47162         0.14362
C         14.72588        34.12812         0.43557
C         15.95619        36.41203         0.59379
C         14.68668        35.60094         0.65226
C         16.00875        37.66159         1.44280
C         14.79231        38.20004         1.90245
C         18.52969         3.56549         1.19083
C         17.26896         4.18339         0.85314
C         18.54944         6.27720         0.22871
C         17.29595         5.46555         0.05097
C         18.55170         7.65469        -0.11169
C         17.28661         8.33252        -0.33437
C         18.58739        10.52563        -0.76648
C         17.27934         9.77603        -0.64788
C         18.56498        11.98252        -0.48198
C         17.32207        12.67854        -0.41563
C         18.55432        14.81989        -0.27269
C         17.33874        14.08593        -0.24446
C         18.57376        16.26941        -0.31640
C         17.36630        17.00633        -0.39609
C         18.58360        19.09966        -0.24030
C         17.33973        18.41798        -0.34572
C         18.60024        20.53594         0.07996
C         17.26857        21.28901         0.02466
C         18.55362        23.43413        -0.07033
C         17.35683        22.73232        -0.14127
C         18.52831        24.88669        -0.22043
C         17.32894        25.59379        -0.14410
C         18.50050        27.74362        -0.54499
C         17.24934        27.01453        -0.24863
C         18.45633        29.24071        -0.68137
C         17.18038        29.92829        -0.37625
C         18.39200        32.11625        -0.68422
C         17.16241        31.33336        -0.27052
C         18.40727        33.55414        -0.19417
C         17.17570        34.21854         0.06216
C         18.39124        36.29621         0.06968
C         17.17822        35.62966         0.24383
C         18.44762        38.11298         1.24931
C         17.20028        38.29463         1.88098
C         19.70490         4.22974         1.02618
C         20.95763         6.31709         0.53522
C         19.74046         5.61287         0.58386
C         20.97634         7.64620         0.12318
C         19.79555         8.34611        -0.16721
C         21.01316        10.56420        -0.06523
C         19.92048         9.76196        -0.72754
C         20.97057        11.90529         0.02943
C         19.76886        12.67397        -0.25770
C         21.01103        14.83911        -0.26392
C         19.78646        14.10339        -0.24550
C         21.02537        16.21132        -0.31835
C         19.81617        16.97019        -0.33894
C         21.03048        19.18150        -0.30433
C         19.81189        18.40712        -0.31282
C         21.04487        20.54972        -0.21813
C         19.84396        21.31567        -0.04491
C         21.02726        23.51158         0.09891
C         19.81271        22.71730         0.01057
C         21.03314        24.84811        -0.08475
C         19.82099        25.60141        -0.57612
C         20.99649        27.87463        -0.48858
C         19.79106        27.06555        -0.09248
C         20.95514        29.22071        -0.59989
C         19.72539        29.99482        -0.52802
C         20.90027        32.14418        -0.28935
C         19.69473        31.37012        -0.43483
C         20.87838        33.50230        -0.19033
C         19.64049        34.24489        -0.12933
C         20.82781        36.44720         0.35212
C         19.65526        35.66693         0.06609
C         20.85296        37.60372         1.12589
C         19.75074        38.25502         1.73824
O         14.17124        29.30181         1.48376
O          7.21857         8.80959        -1.79377
O          9.03905        33.47581         2.19767
O          2.63487        10.07679        -1.44140
O         14.95480        36.44987        -0.49272
O         18.35361        37.68365        -0.09225
O          5.94783        15.83246         0.89347
O         17.83579        20.83139         1.30067
O         11.59113        12.23598         1.11700
O          7.24244        26.41290        -2.61437
O         15.74427        23.26739        -1.87227
O          6.53844        21.31759         0.48874
O         11.97673        23.14239        -2.56244
O         15.97615        15.74787         1.07482
O          6.83027        12.23446         1.02316
O          9.17893         8.27606         1.15728
O         11.76252        16.25901        -2.22723
O         13.46635        15.91308         0.87306
O          3.75407        24.04474         0.50775
O          8.66679        37.44172         0.17233
O          2.70063        14.48610        -1.76994
O          5.61017        32.11372        -1.63249
O         10.43142         5.50800        -1.19217
O         18.47913        28.36285        -1.86457
O         17.84904        10.15022        -1.98067
O          3.53183        19.02722        -2.81812
H          3.92045        18.14357        -3.04139
O          2.04186        35.58471         2.44301
H          1.24036        35.00415         2.52612
O         13.85906        35.48642         2.86161
H         13.10708        35.68577         3.45830
O         10.00877        25.82899        -2.92026
H          9.49309        26.63716        -3.17475
O          7.33311        22.42741        -2.85606
H          7.67405        23.20576        -3.34922
O         11.88172        25.26540         1.14904
H         12.61155        25.63639         1.69175
O          8.92867        28.35123        -2.69913
H          8.07799        28.64759        -3.08797
O          4.61691        22.93901        -2.86742
H          5.42203        22.55283        -3.28973
O          8.93489        20.66347         0.92937
H          8.05379        20.69177         1.37603
O          4.49983         7.90465        -1.77934
H          5.30246         8.20604        -2.26893
O         12.41055         9.70420        -2.22473
H         13.22403         9.19654        -2.43579
O         17.32909         5.02963        -1.36371
H         16.53202         4.47738        -1.51437
O         19.90247        25.65494        -2.02481
H         19.81745        24.74281        -2.37197
O          1.48479        15.00788         1.62894
H          0.79856        15.53773         2.08622
O         12.58614        18.57500        -2.80161
H         11.98331        17.91068        -3.21423
O         20.35985         9.59196        -2.10501
H         19.53957         9.49913        -2.64467
O         15.03085        16.79093        -2.33709
H         14.35341        17.35616        -2.78104
O          1.74886         7.66121        -1.05522
H          2.40059         7.93534        -1.74472
O         19.75507        27.00410         1.36022
H         19.95903        27.89451         1.71455
O         18.28885        32.22084        -2.14948
H         19.07677        32.71277        -2.46414
O          8.34023        12.10589        -2.31134
H          9.03026        11.56797        -2.75494
O          3.45175        29.42412        -2.55363
H          4.26516        29.04155        -2.94706
O          4.88935        16.66752        -2.51624
H          4.33276        15.87052        -2.66785
O          0.46466        33.50742         1.91363
H          0.85677        32.78016         2.44228
O         15.98732        24.59821         1.57896
H         16.17280        25.44501         2.03698
H          1.56523         2.89772         3.23584
H         -0.59916         4.13596         3.37309
H         -0.79092         6.41870         2.45030
H         -0.65080         8.35640         2.24549
H         -0.80550        10.65149         1.44582
H         -1.09778        12.28641         0.16769
H         -1.11455        14.70787         0.12140
H         -1.02410        16.64304        -0.07005
H         -1.03541        19.02288        -0.58461
H         -1.06095        20.85677        -1.09056
H         -1.07521        23.28109        -1.02141
H         -1.04915        25.19586        -0.97013
H         -1.03890        27.62034        -0.80251
H         -1.01024        29.37512        -0.04033
H         -0.98884        31.78924         0.47536
H         -0.42694        33.77638        -1.08114
H         -0.44577        36.23639        -0.94520
H          0.43418        38.37997         0.25970
H          3.89935         2.79553         2.59196
H          2.43620        39.49487         1.21385
H          6.25032         2.66330         2.06813
H          4.90069        39.40457         1.74995
H          8.69199         2.56078         1.71775
H          7.17742        39.05205         2.71863
H         11.17817         2.48315         1.35939
H         10.06800        39.30705         2.54998
H         13.61342         2.49541         1.31348
H         12.35821        39.28815         2.20772
H         16.05565         2.57214         1.57863
H         14.80991        39.20671         2.34934
H         18.51709         2.54659         1.60624
H         17.13781        38.94703         2.76586
H         20.65765         3.74672         1.28804
H         21.89615         5.80390         0.78836
H         21.94808         8.14757         0.02635
H         21.94078        10.04691         0.21581
H         21.84353        12.43856         0.43206
H         21.96722        14.29893        -0.26477
H         21.99443        16.72728        -0.34334
H         21.99149        18.65975        -0.40695
H         22.01026        21.07251        -0.27104
H         21.96297        23.00401         0.37609
H         21.97880        25.39963         0.02255
H         21.96213        27.35971        -0.59865
H         21.89321        29.75644        -0.80706
H         21.86758        31.62462        -0.24857
H         21.82792        34.04635        -0.10204
H         21.80774        36.00683         0.11342
H         21.85261        37.95000         1.43559
H         19.92957        38.83459         2.65570
