         429
 CSIRO Nanostructure Databank - Neutral Graphene Oxide Data Set
C          1.58416         1.82227         0.79609
C          1.51505         3.21597         0.80444
C          2.80952         1.17830         0.65041
C          2.67623         4.00876         0.67484
C          1.38288         6.15315         0.74905
C          1.32702         7.53044         0.69953
C          2.61445         5.45663         0.64611
C          2.50149         8.31123         0.53765
C          1.22371        10.46905         0.47358
C          1.18778        11.85108         0.37812
C          2.44731         9.75755         0.47731
C          2.37284        12.61556         0.30093
C          1.06801        14.87317         0.35966
C          1.09166        16.22068         0.33649
C          2.33719        14.12004         0.01329
C          2.35043        16.96336         0.22583
C          2.36741        18.40204        -0.05347
C          3.99637         1.93299         0.53201
C          3.94185         3.36085         0.55585
C          5.25022         1.28715         0.34329
C          5.15523         4.11391         0.44098
C          3.81028         6.20782         0.49333
C          3.74909         7.63748         0.43213
C          5.08000         5.53674         0.39866
C          4.95761         8.40634         0.30444
C          3.66005        10.50626         0.41052
C          3.60113        11.93328         0.32949
C          4.90989         9.80403         0.35240
C          4.87079        12.69362         0.20159
C          3.53169        14.82296         0.70568
C          3.53140        16.31404         0.44619
C          4.84782        14.17769         0.30583
C          4.77115        17.15686         0.68984
C          3.52000        19.05050        -0.32063
C          4.83812        18.30333        -0.32394
C          6.45755         1.97687         0.30284
C          6.43259         3.43925         0.39492
C          7.63061         1.18946        -0.04296
C          7.58961         4.24162         0.27171
C          6.26354         6.31688         0.20520
C          6.22772         7.73055         0.16270
C          7.51592         5.65225         0.04264
C          7.44321         8.45965        -0.02618
C          6.18867        10.53244         0.47732
C          6.17156        12.02789         0.49185
C          7.45046         9.87358         0.10784
C          7.42611        12.77446         0.24801
C          6.11776        14.87440         0.67114
C          6.07780        16.37815         0.73508
C          7.40458        14.19513         0.39014
C          7.32808        17.09301         0.45746
C          6.05775        19.14218        -0.06134
C          7.28502        18.51336         0.20657
C          8.92350         1.56191         0.26818
C          8.92683         3.72025         0.42184
C         10.17148         1.15611        -0.27319
C         10.04343         4.24665        -0.16837
C          8.68863         6.36297        -0.30739
C          8.67456         7.77677        -0.31486
C          9.84092         5.57014        -0.89373
C          9.87016         8.54926        -0.52685
C          8.62440        10.62735        -0.08382
C          8.62502        12.07650         0.05641
C          9.83864         9.93657        -0.41014
C          9.86780        12.81885         0.02410
C          8.59395        14.93213         0.42013
C          8.55595        16.39332         0.47278
C          9.84835        14.24595         0.25459
C          9.76281        17.12553         0.44851
C          8.51579        19.22667         0.20886
C          9.74731        18.55491         0.36691
C         11.30724         1.99919        -0.31439
C         11.29132         3.48639        -0.31034
C         12.54955         1.34997        -0.50940
C         12.43940         4.16998        -0.65390
C         11.14306         6.36672        -0.98111
C         11.20040         7.81833        -0.50482
C         12.44430         5.63513        -0.89878
C         12.42595         8.52266        -1.16484
C         11.07014        10.73995        -0.62877
C         11.08503        12.15978        -0.19507
C         12.35895        10.04630        -0.95692
C         12.33098        12.88494        -0.20490
C         11.06255        14.96311         0.29056
C         11.04589        16.40332         0.74960
C         12.29516        14.31816         0.05773
C         12.27582        17.18370         0.38370
C         10.97670        19.27768         0.37700
C         12.23164        18.61744         0.35077
C         13.76640         2.04098        -0.60973
C         13.74954         3.50287        -0.96934
C         14.99148         1.39068        -0.48724
C         14.94408         4.26679        -0.42649
C         13.68560         6.41212        -0.59132
C         13.67677         7.81805        -0.62167
C         14.89094         5.70012        -0.31776
C         14.83850         8.53127        -0.22027
C         13.63445        10.78928        -0.71268
C         13.54564        12.23632        -0.42572
C         14.86217        10.02211        -0.29726
C         14.84998        12.98807        -0.51228
C         13.51149        15.06913         0.08882
C         13.49066        16.50578         0.24305
C         14.75641        14.42430        -0.07087
C         14.71697        17.24363         0.16626
C         13.44006        19.34306         0.22307
C         14.68877        18.68293         0.14737
C         16.20387         2.12680        -0.34756
C         16.14157         3.58402        -0.22946
C         17.41351         1.45605        -0.22019
C         17.35077         4.30440         0.07645
C         16.07646         6.42734         0.01109
C         16.02003         7.84630         0.11208
C         17.32071         5.72421         0.19217
C         17.21748         8.57358         0.63283
C         15.92843        10.79511         0.44106
C         15.94794        12.28190         0.28767
C         17.17890        10.06214         0.86076
C         17.22165        13.04100         0.41473
C         15.96024        15.12481         0.06560
C         15.94975        16.55807         0.13674
C         17.20971        14.39620         0.22478
C         17.17228        17.29399         0.03257
C         15.90358        19.39513        -0.00102
C         17.13854        18.71928        -0.09994
C         18.63293         2.14663         0.07245
C         18.57815         3.59832         0.19978
C         19.81024         1.46116         0.28563
C         19.78336         4.31665         0.37546
C         18.54275         6.43665         0.42577
C         18.53791         7.89581         0.54742
C         19.74547         5.73330         0.49614
C         19.70740         8.60811         0.60843
C         18.47657        10.84629         0.99452
C         18.47202        12.39303         0.98103
C         19.75992        10.09130         0.76576
C         19.72181        13.01409         0.35374
C         18.46747        15.19474         0.48012
C         18.40619        16.60188        -0.06500
C         19.70413        14.40766         0.09896
C         19.55764        17.28668        -0.44031
C         18.36766        19.40676        -0.33062
C         19.54451        18.70752        -0.55254
C         21.05918         2.15629         0.74682
C         21.04025         3.61617         0.40223
C         22.32744         1.47171         0.31739
C         22.25103         4.30096         0.18843
C         21.06314         6.40080         0.80226
C         21.01821         7.92092         0.70737
C         22.11142         5.77420        -0.16603
C         22.23405         8.67569         0.25192
C         20.96351        10.82573         0.27322
C         20.90231        12.26036         0.10825
C         22.12791        10.12989        -0.04580
C         22.09173        12.95788        -0.26799
C         20.84528        15.09010        -0.35227
C         20.76273        16.51035        -0.89796
C         22.07387        14.37776        -0.45019
C         22.04265        17.29326        -0.75271
C         20.80722        19.47397        -0.89024
C         22.08416        18.67724        -0.70723
C         23.48366         2.17625         0.05689
C         23.46564         3.62331         0.07100
C         24.73610         1.48934        -0.19353
C         24.76856         4.38386         0.07302
C         23.42066         6.53306        -0.23711
C         23.39645         7.91222        -0.26364
C         24.65410         5.80916        -0.44660
C         24.50793         8.66419        -0.85188
C         23.32973        10.82610        -0.41068
C         23.31486        12.24780        -0.46639
C         24.54490        10.13566        -0.69247
C         24.54049        12.95165        -0.64562
C         23.29789        15.07491        -0.65544
C         23.28645        16.53405        -0.85926
C         24.53336        14.38418        -0.63823
C         24.58118        17.30127        -0.67209
C         23.31047        19.39471        -0.53053
C         24.54994        18.75480        -0.40851
C         25.89477         2.16154        -0.50245
C         25.91684         3.61768        -0.55721
C         27.13670         1.45321        -0.76327
C         27.02716         4.28310        -0.99655
C         25.81222         6.47418        -0.77466
C         25.79439         7.89589        -1.13943
C         27.10419         5.75460        -0.83133
C         27.07327         8.64158        -1.21760
C         25.74216        10.82929        -0.90768
C         25.77194        12.25274        -0.77076
C         26.99049        10.12273        -1.28125
C         27.01186        12.97131        -0.64963
C         25.77024        15.07632        -0.48502
C         25.73539        16.51560        -0.18211
C         26.98929        14.38127        -0.40493
C         27.01208        17.26153         0.08412
C         25.79069        19.41784        -0.18968
C         27.02498        18.73456        -0.07857
C         28.26298         2.09787        -1.16421
C         28.23655         3.55226        -1.43214
C         29.49756         1.35782        -1.61772
C         29.53947         4.29417        -1.66751
C         28.35075         6.50610        -1.15052
C         28.26976         7.98984        -1.32091
C         29.58802         5.82918        -1.76149
C         29.55446         8.73311        -1.34892
C         28.30216        10.88910        -1.09737
C         28.25496        12.28375        -0.63734
C         29.54658        10.13211        -0.91929
C         29.45191        12.92526        -0.27746
C         28.22561        15.08534        -0.15445
C         28.26160        16.49438        -0.00821
C         29.44470        14.35041        -0.05923
C         29.48479        17.18937         0.04913
C         28.27764        19.37087        -0.04001
C         29.50219        18.64327         0.05832
C         30.78841         2.11759        -1.35966
C         30.80559         3.56753        -1.37599
C         31.91488         1.40069        -1.05998
C         31.92741         4.27065        -0.95229
C         30.81294         6.45160        -1.11589
C         30.86841         7.92163        -1.11091
C         31.91043         5.71143        -0.71958
C         31.95831         8.59648        -0.40746
C         30.70739        10.76075        -0.48300
C         30.69005        12.18084        -0.18226
C         31.91234         9.99657        -0.21636
C         31.86810        12.82036         0.20513
C         30.65328        15.04112         0.16298
C         30.69543        16.44854         0.13434
C         31.89395        14.28420         0.55909
C         31.96490        17.14201         0.20239
C         30.74381        19.29650         0.12366
C         31.97794        18.58682         0.18644
C         33.21767         2.04379        -0.94165
C         33.22050         3.58173        -0.83999
C         34.37467         1.33179        -0.39058
C         34.32828         4.22205        -0.11201
C         33.07539         6.36046        -0.13980
C         33.07678         7.79976         0.04975
C         34.20611         5.59162         0.23280
C         34.17543         8.45166         0.62142
C         33.03422        10.68187         0.34462
C         33.06991        12.08563         0.43560
C         34.14201         9.88858         0.86985
C         34.31847        12.78225         0.72525
C         33.15454        14.92936        -0.00300
C         33.16184        16.42305         0.22628
C         34.38710        14.22337         0.52443
C         34.40983        17.09448         0.27462
C         33.21760        19.25338         0.16977
C         34.44259        18.53771         0.19859
C         35.48003         2.00566         0.06399
C         35.46817         3.45676         0.27179
C         36.70921         1.27555         0.29794
C         36.59813         4.07880         0.85364
C         35.33037         6.21016         0.96108
C         35.33750         7.72368         1.15736
C         36.61500         5.48876         1.05078
C         36.64797         8.41579         1.22155
C         35.45322        10.62368         1.25657
C         35.47493        12.07852         1.03632
C         36.70989         9.83712         1.18451
C         36.74886        12.77710         1.32349
C         35.56047        14.92470         0.65481
C         35.60890        16.35317         0.41706
C         36.81134        14.30467         1.24739
C         36.87393        17.00596         0.32085
C         35.69042        19.17897         0.09977
C         36.91040        18.44626         0.08614
C         37.81925         1.86548         0.83103
C         37.68113         3.21856         1.48867
C         39.08448         1.17599         0.86770
C         39.01262         3.95208         1.66245
C         37.78904         6.21018         1.33811
C         37.83819         7.64640         1.28073
C         39.04486         5.47481         1.61120
C         39.11424         8.31356         1.17979
C         37.94976        10.49549         1.10158
C         38.02363        11.97086         1.31564
C         39.15447         9.73535         1.03477
C         39.36406        12.70990         1.16723
C         38.06379        14.82613         0.55115
C         38.04932        16.22829         0.25193
C         39.23783        14.07162         0.47401
C         39.34605        16.87219         0.00355
C         38.10811        19.09448        -0.23172
C         39.38182        18.39973        -0.25578
C         40.25275         1.83026         1.13297
C         40.27860         3.24172         1.41053
C         41.46587         3.95606         1.41604
C         40.33571         6.13852         1.36973
C         40.33835         7.57322         1.15333
C         41.49251         5.37253         1.40316
C         41.54809         8.26162         0.93243
C         40.40090        10.40246         0.79521
C         40.43300        11.82790         0.54900
C         41.57882         9.63623         0.74309
C         41.48406        12.41303        -0.12049
C         40.42544        14.61881        -0.12880
C         40.38298        16.02742        -0.70110
C         41.51150        13.80607        -0.39658
C         41.69478        16.75295        -0.82870
C         40.55231        18.90986        -0.95577
C         41.70521        18.11695        -1.05958
O         28.76000         3.79133        -2.80655
O         27.68345        10.70337        -2.42477
O          4.94797        13.54767        -1.01159
O         21.58653         5.78288        -1.46148
O         34.50354        10.20271         2.27051
O         33.59707         2.89797        -2.07876
O          9.05011         2.58784         1.22943
O         16.94639         9.15492         1.97202
O         14.70396        10.46034        -1.69995
O         28.08434         6.12045         0.24981
O         39.02396         4.73564         2.89933
O         21.93519         8.49147         1.70537
O          6.10293        15.54690         1.97560
O         24.85995         8.23579        -2.21542
O         34.98565         6.82285         2.25545
O          6.21720        11.29963         1.75943
O         19.29628        10.43011         2.13100
O         30.50105         8.48357        -2.41741
O         37.35398        12.30377         2.59067
O         26.12885        16.82771         1.19394
O         24.14998        16.93386        -2.00989
O         15.43659        11.65886         1.51660
O         39.78605        17.74659         1.03728
O         11.57455        10.65429        -2.03892
O         11.85024         6.02842        -2.20144
O          9.42244         5.26245        -2.25201
H         10.25128         5.23596        -2.79015
O          5.01333        17.68251        -1.63555
H          4.95864        18.38601        -2.31536
O         21.40578         6.03533         2.15349
H         21.85693         6.81570         2.55543
O         39.85408        12.99123         2.50843
H         39.06733        13.03553         3.09958
O         37.17151         2.93859         2.82576
H         37.48204         3.67969         3.39888
O          3.40603        14.60106         2.13359
H          4.22389        14.95254         2.55691
O         20.56367        16.33749        -2.34897
H         21.41921        16.04907        -2.73398
O         11.07908        16.31735         2.23367
H         11.09640        17.23660         2.57683
O         39.85638        15.86591        -2.06950
H         40.50690        15.33579        -2.57690
O          2.44473        14.26619        -1.42229
H          3.32311        13.90787        -1.69911
O         12.44597         8.33322        -2.58108
H         11.98377         9.09927        -2.99198
O         31.99610        14.38301         2.00839
H         31.20729        13.95680         2.40330
O         18.48579        12.78440         2.38958
H         18.99938        12.08928         2.86927
O         18.55152        15.42607         1.92123
H         18.51540        14.53759         2.36405
O         25.12953         4.52480         1.49230
H         25.99303         4.99081         1.53350
O         29.54731         0.05078        -1.04909
H         29.54538         0.13453        -0.07384
O         33.12151        14.72850        -1.44641
H         33.87750        15.21367        -1.83812
O          4.62676        17.77980         1.99067
H          4.84528        17.10137         2.66629
O         15.26974        13.05411        -1.90482
H         15.13445        12.15484        -2.29228
O         11.54433         7.76913         0.91788
H         10.74971         7.49643         1.42404
O         20.85383        20.70115        -0.15374
H         20.83884        20.48648         0.80132
O         29.61550         6.17139        -3.15936
H         29.16421         5.44578        -3.64888
O         36.86907        14.82272         2.60419
H         37.11763        14.07423         3.19393
O         13.88217         3.55488        -2.43158
H         14.75465         3.17097        -2.66206
O         21.06017         2.07227         2.23397
H         21.77769         2.66048         2.55579
H          0.66230         1.23263         0.89590
H          0.53056         3.69005         0.91088
H          2.86303         0.08056         0.62931
H          0.44506         5.59618         0.87395
H          0.34888         8.02025         0.79309
H          0.27100         9.92459         0.51771
H          0.21100        12.35245         0.34706
H          0.11275        14.33984         0.46835
H          0.16491        16.80093         0.46442
H          1.40543        18.93567        -0.09156
H          5.25934         0.19176         0.23821
H          3.51390        20.11783        -0.59183
H          7.46196         0.27687        -0.63481
H          6.03367        20.22777        -0.24366
H         10.27782         0.13684        -0.67726
H          8.50785        20.31678         0.06565
H         12.57705         0.25107        -0.43693
H         10.94775        20.37551         0.32058
H         15.02053         0.29561        -0.37782
H         13.40513        20.44190         0.18007
H         17.43129         0.35863        -0.29671
H         15.87925        20.49307        -0.07022
H         19.81936         0.36248         0.22685
H         18.37199        20.50539        -0.38450
H         22.36004         0.37290         0.37236
H         20.75776        19.76471        -1.97691
H         24.74228         0.39011        -0.14497
H         23.24991        20.48857        -0.42930
H         27.14749         0.35775        -0.65580
H         25.79639        20.51861        -0.17003
H         29.41007         1.22007        -2.73126
H         28.32360        20.46952        -0.09067
H         31.83775         0.31440        -0.90076
H         30.77017        20.39711         0.11251
H         34.38569         0.23225        -0.43730
H         33.24070        20.35196         0.11034
H         36.76970         0.24415        -0.08279
H         35.72816        20.27341        -0.00560
H         39.10117         0.11202         0.58827
H         38.07224        20.13219        -0.59651
H         41.21217         1.29539         1.07858
H         42.41629         3.41333         1.30801
H         42.47570         5.85431         1.31753
H         42.49710         7.71082         0.90692
H         42.54768        10.12810         0.58500
H         42.30946        11.79737        -0.50482
H         42.39619        14.21310        -0.90571
H         42.62916        16.18474        -0.93845
H         40.54750        19.93997        -1.33918
H         42.64591        18.59477        -1.37438
