         732
 CSIRO Nanostructure Databank - Neutral Graphene Oxide Data Set
C         23.23559        24.20882        -0.32017
C         22.18347        24.77846         0.44807
C         23.36861        26.92357         0.63649
C         22.24887        26.04179         0.97525
C         23.71425        28.13532         1.50592
C         22.50925        28.93286         1.91816
C         23.66012        31.08785         1.67334
C         22.54461        30.28571         2.07072
C         23.71059        32.48338         1.88937
C         22.67893        33.15938         2.61162
C         23.68884        35.34802         2.23777
C         22.69031        34.53560         2.79035
C         23.67713        36.77264         2.38706
C         22.54019        37.45680         2.88949
C         23.66738        39.60635         2.69716
C         22.52048        38.83362         2.99840
C         23.62030        41.07009         2.73093
C         22.39099        41.75693         2.86826
C         23.47707        43.92470         2.56185
C         22.32331        43.13689         2.74208
C         23.31458        45.36120         2.25909
C         22.27710        45.86917         1.45131
C         23.40782        48.03301         1.28729
C         22.31230        47.20062         1.02227
C         25.46122        22.99614        -1.84005
C         25.56765        24.28219        -1.20056
C         24.44561        24.87385        -0.53170
C         25.86984        26.91353         0.07984
C         24.52399        26.29036        -0.10537
C         25.90715        28.37991         0.31340
C         24.80028        28.98542         0.86605
C         25.99900        31.19671         0.72166
C         24.67194        30.47680         0.74315
C         26.00737        32.60115         0.95426
C         24.84304        33.24312         1.43179
C         26.04098        35.47375         1.33293
C         24.72405        34.73780         1.32791
C         26.04330        36.85575         1.57020
C         24.84114        37.52929         2.05451
C         26.11212        39.65666         2.18208
C         24.84121        38.92062         2.29024
C         26.08872        41.16510         2.32677
C         24.78712        41.84213         2.52605
C         26.00483        43.96950         2.31317
C         24.74500        43.26114         2.51692
C         26.15831        45.31424         2.65877
C         24.29616        46.28838         2.64985
C         25.75518        48.27679         2.22997
C         24.46425        47.56629         2.09134
C         25.74921        49.67620         2.28475
C         27.72790        23.20177        -2.89568
C         26.44561        22.47890        -2.62098
C         27.82885        24.50778        -2.14788
C         26.81078        25.00194        -1.36466
C         28.18738        27.12348        -0.92268
C         27.01632        26.27826        -0.62830
C         28.24336        28.45068        -0.56114
C         27.09309        29.12645        -0.02658
C         28.36444        31.27594         0.00999
C         27.14907        30.52540         0.26099
C         28.37198        32.68183         0.27646
C         27.22692        33.35530         0.72685
C         28.40562        35.54786         0.70692
C         27.23365        34.79285         0.94380
C         28.39244        36.96412         0.79109
C         27.22492        37.62053         1.28451
C         28.38112        39.78984         1.14359
C         27.25331        39.02407         1.49875
C         28.35175        41.23417         1.25680
C         27.20659        41.90643         1.71947
C         28.29507        44.09434         1.38355
C         27.15655        43.32595         1.74709
C         28.28364        45.52788         1.52248
C         27.14973        46.15960         2.10567
C         28.19784        48.35960         1.85620
C         27.01977        47.59959         2.11116
C         28.16558        49.77377         2.01556
C         26.93721        50.40783         2.26040
C         30.09751        20.35713        -1.86583
C         28.92628        21.04111        -2.19820
C         30.23024        23.04206        -2.65235
C         28.97585        22.38655        -2.57135
C         30.30797        24.48607        -2.67325
C         29.06330        25.32272        -2.45694
C         30.50723        27.25475        -1.88684
C         29.39603        26.37460        -1.38409
C         30.57196        28.56913        -1.55497
C         29.58928        29.15041        -0.56135
C         30.60773        31.43581        -1.01070
C         29.50532        30.66113        -0.55056
C         30.72411        32.79387        -0.69168
C         29.66621        33.38127         0.15439
C         30.78025        35.66645        -0.18931
C         29.67622        34.88160         0.38612
C         30.73146        37.07696        -0.08197
C         29.55797        37.72989         0.44827
C         30.69726        39.91439         0.25882
C         29.53641        39.13853         0.59787
C         30.68034        41.33296         0.43601
C         29.49657        42.00157         0.87054
C         30.64784        44.17751         0.61723
C         29.47979        43.42340         0.94252
C         30.54827        45.67031         0.42769
C         29.41295        46.30755         1.17965
C         30.60689        48.45113         1.17575
C         29.42062        47.70187         1.42026
C         30.54945        49.95702         1.13660
C         29.40294        50.53690         1.93008
C         30.72195        52.54229         2.39063
C         29.52131        51.77721         2.49980
C         32.59088        18.96350        -1.18346
C         32.58850        20.32041        -1.54953
C         31.35772        20.96995        -2.00455
C         32.77420        22.84626        -2.89587
C         31.42535        22.30423        -2.45817
C         32.73502        24.38933        -3.24022
C         31.52829        25.12591        -2.70928
C         32.80153        27.23492        -2.77184
C         31.62130        26.55460        -2.51085
C         32.74257        28.74154        -2.89492
C         31.83718        29.36177        -1.79825
C         32.78917        31.64685        -2.35267
C         31.49772        30.84742        -2.08606
C         32.96031        33.01259        -1.77393
C         31.86734        33.58862        -1.06638
C         33.04654        35.77043        -1.11408
C         31.89687        34.99919        -0.75481
C         33.01967        37.17833        -0.95982
C         31.87197        37.84790        -0.46804
C         33.04211        40.05046        -0.43071
C         31.86032        39.27780        -0.25271
C         33.05800        41.41297        -0.10927
C         31.86431        42.09228         0.23686
C         33.08209        44.28803         0.16907
C         31.85314        43.52639         0.34785
C         33.06777        45.71746         0.34021
C         31.85637        46.39707         0.60693
C         33.08114        48.52782         0.84872
C         31.83598        47.79262         0.85309
C         33.06138        49.94437         1.17579
C         31.87942        50.61151         1.42364
C         33.06815        52.81162         1.61065
C         31.87165        52.00410         1.85334
C         33.05180        54.23471         1.65662
C         34.86176        19.13530        -0.34117
C         33.70929        18.37280        -0.61111
C         34.88720        20.49719        -0.72924
C         33.77760        21.08847        -1.37599
C         35.11424        23.06602        -2.00941
C         33.90618        22.41170        -1.97705
C         35.26350        24.31615        -2.80732
C         34.02299        25.12151        -2.93255
C         35.28200        27.26416        -3.14444
C         34.02482        26.50114        -2.94841
C         35.28051        28.75538        -2.97323
C         34.09349        29.43897        -2.88598
C         35.30508        31.69862        -2.96921
C         34.02292        30.92717        -2.84735
C         35.38700        33.08867        -2.47217
C         34.18461        33.72413        -1.93971
C         35.45597        35.84704        -1.69518
C         34.23345        35.11323        -1.59598
C         35.49230        37.24323        -1.53939
C         34.20699        37.94507        -1.37382
C         35.54196        40.07811        -0.93556
C         34.23608        39.43503        -1.04467
C         35.60652        41.44549        -0.39726
C         34.32830        42.15541        -0.02567
C         35.52920        44.35361        -0.16647
C         34.30394        43.62988        -0.02452
C         35.52528        45.76535        -0.01252
C         34.29791        46.44661         0.29724
C         35.58290        48.55470         0.59488
C         34.28302        47.84508         0.57793
C         35.61573        50.02565         0.93362
C         34.35218        50.69168         1.48889
C         35.30055        52.94321         0.59201
C         34.22270        52.16350         1.18347
C         35.35729        54.37726         0.85015
C         34.20209        54.97249         1.38803
C         37.06089        16.82243         1.72372
C         35.94616        17.35312         1.00773
C         37.27429        19.28599         0.33957
C         36.02210        18.54427         0.31309
C         37.31108        20.61081         0.00575
C         36.08669        21.30069        -0.44051
C         37.61394        23.19004        -1.33356
C         36.24688        22.63857        -1.15986
C         37.88202        24.29714        -2.34729
C         36.60277        24.99163        -2.88423
C         37.84148        27.25732        -2.97297
C         36.57267        26.48908        -3.13774
C         37.76187        28.73236        -2.94959
C         36.58044        29.43667        -3.01739
C         37.84744        31.68335        -2.98969
C         36.59642        30.92709        -3.14970
C         37.87753        33.07525        -2.81099
C         36.62421        33.73540        -2.46603
C         38.01405        35.87227        -2.02342
C         36.71118        35.10110        -1.91208
C         37.94284        37.35430        -1.90415
C         36.70674        38.00008        -1.63265
C         37.94198        40.17763        -1.38712
C         36.70536        39.42779        -1.35557
C         37.95146        41.59180        -1.13147
C         36.78213        42.26657        -0.71019
C         37.96324        44.41278        -0.69549
C         36.75536        43.66565        -0.51006
C         37.95486        45.83750        -0.52810
C         36.74857        46.50400        -0.19575
C         37.91298        48.66794        -0.30030
C         36.75837        47.92467        -0.06111
C         37.80664        50.16608        -0.43480
C         36.71191        50.81847         0.37742
C         37.80330        53.04381        -0.27572
C         36.55578        52.22316         0.08539
C         37.82555        54.42049         0.36764
C         36.61251        55.08919         0.68301
C         37.85554        57.15747         1.00619
C         36.65788        56.47917         0.96216
C         39.35498        15.61736         3.05727
C         39.48302        16.79439         2.28853
C         38.31697        17.36858         1.63049
C         39.72871        19.36368         0.93672
C         38.52674        18.49950         0.65177
C         39.75959        20.66916         0.50932
C         38.50029        21.48943         0.32808
C         39.95152        23.37565        -0.58568
C         38.67898        22.67457        -0.62317
C         40.03632        24.71746        -1.10141
C         38.96108        25.23921        -1.83649
C         40.22401        27.42982        -2.01264
C         39.07494        26.58532        -2.39808
C         40.28574        28.75489        -2.47167
C         39.07972        29.40716        -3.06182
C         40.33401        31.63093        -3.00634
C         39.07548        30.91265        -3.12776
C         40.33216        33.00231        -3.20720
C         39.13951        33.82307        -2.94619
C         40.36293        36.07571        -2.69374
C         39.20446        35.23003        -2.66596
C         40.38591        37.42591        -2.17140
C         39.14144        38.10252        -1.93848
C         40.38561        40.24837        -1.74048
C         39.15165        39.51416        -1.68920
C         40.35928        41.64856        -1.59499
C         39.16350        42.33492        -1.25840
C         40.40692        44.49022        -1.07293
C         39.16944        43.74592        -1.02767
C         40.40063        45.91098        -0.88099
C         39.16728        46.58435        -0.66506
C         40.36449        48.73960        -0.76403
C         39.15033        48.01175        -0.59404
C         40.32037        50.21780        -0.75804
C         39.10628        50.91274        -0.29003
C         40.35207        53.01993        -0.05940
C         39.10484        52.27486        -0.14723
C         40.33034        54.39063         0.31993
C         39.06740        55.09596         0.49347
C         40.33980        57.17568         1.02630
C         39.08318        56.47849         0.83465
C         40.37393        58.55390         1.31685
C         41.71239        15.63957         3.56740
C         40.45783        15.04768         3.68551
C         41.89081        16.81594         2.81020
C         40.76438        17.40137         2.15689
C         42.13520        19.31334         1.44102
C         40.91180        18.68151         1.45707
C         42.27402        20.62502         0.79388
C         41.04553        21.34876         0.32597
C         42.29804        23.51909         0.16240
C         41.09318        22.80366         0.02652
C         42.38946        24.87780        -0.28992
C         41.25697        25.47334        -0.91871
C         42.56315        27.56062        -1.25748
C         41.34628        26.82507        -1.38392
C         42.64387        28.89309        -1.76508
C         41.49281        29.48055        -2.34850
C         42.86822        31.61065        -2.76974
C         41.57212        30.83960        -2.92917
C         42.81580        33.05966        -3.00599
C         41.63269        33.56126        -3.50096
C         42.85389        36.13659        -2.79100
C         41.63092        35.69226        -3.23926
C         42.90642        37.35129        -1.92313
C         41.60725        38.11492        -2.00783
C         42.87800        40.20625        -1.77918
C         41.63875        39.52963        -1.84926
C         42.88889        41.67004        -1.82600
C         41.58498        42.43330        -1.76123
C         42.86862        44.53447        -1.25170
C         41.62104        43.83914        -1.33501
C         42.86484        45.94663        -1.02475
C         41.62328        46.64044        -0.91930
C         42.86917        48.78194        -0.82944
C         41.60842        48.07407        -0.86763
C         42.91001        50.28069        -1.15428
C         41.59443        51.00966        -0.87076
C         42.81746        53.00090         0.02751
C         41.59325        52.36597        -0.27771
C         42.80236        54.34830         0.47799
C         41.56101        55.05547         0.58133
C         42.78365        57.10532         1.26922
C         41.56107        56.44554         0.95844
C         42.77375        58.48571         1.55588
C         41.58172        59.20282         1.55946
C         44.33176        16.92976         3.34089
C         43.21138        17.42990         2.72068
C         44.60955        19.45452         2.05951
C         43.40797        18.57402         1.76221
C         44.67200        20.73970         1.60537
C         43.43817        21.45356         1.21320
C         44.77737        23.59126         0.87411
C         43.45505        22.90432         0.87244
C         44.71679        25.09901         0.74434
C         43.59975        25.62596        -0.13843
C         44.93633        27.68861        -0.54048
C         43.69856        26.94508        -0.62989
C         45.02614        29.01902        -1.04268
C         43.88454        29.63657        -1.64043
C         45.18373        31.71940        -1.89708
C         43.99219        30.98336        -2.05833
C         45.19186        33.18807        -2.09629
C         43.98629        33.89491        -2.65581
C         45.29532        36.00522        -2.75814
C         44.07969        35.36762        -2.91477
C         45.36002        37.46015        -2.59661
C         44.14792        38.14246        -2.25465
C         45.34607        40.27014        -2.11172
C         44.14279        39.54096        -2.00760
C         45.41781        41.62431        -1.58249
C         44.10641        42.37708        -1.37051
C         45.34454        44.52378        -1.14993
C         44.11054        43.84495        -1.30608
C         45.33354        45.93349        -0.91486
C         44.09604        46.64502        -0.86000
C         45.32080        48.80064        -0.27467
C         44.06256        48.07812        -0.71284
C         45.42660        50.24058        -0.83945
C         44.13049        50.98700        -0.61122
C         45.31368        52.95929         0.26328
C         44.08434        52.27596        -0.11788
C         45.28415        54.29300         0.75016
C         44.03560        55.00521         0.83744
C         45.21858        56.94404         1.75555
C         44.01712        56.34642         1.27838
C         45.59424        17.59585         3.28905
C         46.96268        19.64841         2.92253
C         45.75824        18.84019         2.70742
C         47.02571        20.98543         2.45080
C         45.99905        21.42474         1.41586
C         47.26287        23.60926         1.24376
C         45.91172        22.93085         1.22162
C         47.21492        25.08530         0.94811
C         46.05474        25.71219         0.42994
C         47.36017        27.74852        -0.07917
C         46.11482        27.05292        -0.04507
C         47.44191        29.07930        -0.51193
C         46.26661        29.73529        -0.99061
C         47.61476        31.80759        -1.38760
C         46.35698        31.09012        -1.42564
C         47.67398        33.18412        -1.84555
C         46.50490        33.85427        -2.18718
C         47.87673        35.94276        -2.80191
C         46.54105        35.20411        -2.75345
C         47.83908        37.44985        -3.00178
C         46.56783        38.16125        -2.72601
C         47.83749        40.44545        -2.68481
C         46.50031        39.68039        -2.88096
C         47.84912        41.78885        -2.01859
C         46.64491        42.42990        -1.66182
C         47.83152        44.51773        -1.17857
C         46.60033        43.80518        -1.30027
C         47.81604        45.92356        -0.89262
C         46.58620        46.64197        -0.76672
C         47.82780        48.72526        -0.36464
C         46.60307        48.03539        -0.52794
C         47.84573        50.17978        -0.14073
C         46.63453        50.93216        -0.25849
C         47.80628        53.02571         0.36024
C         46.56241        52.27477         0.12869
C         47.76035        54.32937         1.02023
C         46.49378        54.95187         1.17848
C         46.40627        56.26246         1.73104
C         49.16130        19.94161         3.93740
C         48.04874        19.15666         3.67765
C         49.21314        21.29201         3.52922
C         48.11354        21.80730         2.79820
C         49.40104        23.96898         2.52399
C         48.04414        23.29289         2.52862
C         49.45038        25.33034         1.99152
C         48.40135        25.79061         1.07232
C         49.84081        27.80004         0.46282
C         48.61692        26.97413         0.19126
C         49.87582        29.09970        -0.10420
C         48.71085        29.77758        -0.52239
C         50.03819        31.88115        -0.88353
C         48.78158        31.15017        -0.94954
C         50.07688        33.24253        -1.22606
C         48.93368        33.92299        -1.78464
C         50.19426        36.14160        -1.76782
C         49.00841        35.27382        -2.15299
C         50.35223        37.36236        -2.65497
C         49.15269        38.19573        -3.03300
C         50.39880        40.46922        -2.46510
C         49.16145        39.72909        -2.87934
C         50.32139        41.75435        -1.90424
C         49.07910        42.44936        -1.74022
C         50.30014        44.54900        -1.12065
C         49.06805        43.82072        -1.30375
C         50.28420        45.92958        -0.89671
C         49.04878        46.62165        -0.74735
C         50.30278        48.65124        -0.07228
C         49.04429        48.00781        -0.41804
C         50.21264        49.97117         0.59963
C         49.02121        50.78107         0.31189
C         50.29832        52.85790         1.10642
C         49.13326        52.22940         0.44033
C         50.18567        54.23108         1.45390
C         48.98380        54.91961         1.42574
C         51.49495        21.62322         4.47206
C         50.41139        22.10634         3.75909
C         51.77246        24.16114         3.23010
C         50.50381        23.43360         3.17130
C         51.93595        25.39648         2.58127
C         50.77289        26.07789         2.01057
C         52.25132        27.81990         1.03470
C         50.96355        27.22785         1.09363
C         52.42908        29.00883         0.19353
C         51.18089        29.72604        -0.33774
C         52.52345        31.76321        -0.60628
C         51.25658        31.16747        -0.57445
C         52.60360        33.22634        -0.75748
C         51.33344        33.99537        -1.04660
C         52.72725        35.85907        -1.88338
C         51.46774        35.33325        -1.64842
C         52.84263        37.13490        -2.57927
C         51.59719        37.74956        -3.02923
C         52.88788        40.57791        -2.51015
C         51.66401        39.99565        -2.90493
C         52.86243        41.80648        -1.79338
C         51.55894        42.36638        -1.29105
C         52.77047        44.53275        -0.98526
C         51.57229        43.86999        -1.22258
C         52.80123        45.92669        -0.65266
C         51.56635        46.72731        -0.99762
C         52.81872        48.78638        -0.14667
C         51.50665        48.04390        -0.27445
C         52.77124        50.01247         0.72735
C         51.48378        50.66769         1.00810
C         52.72183        52.67866         1.71610
C         51.48304        52.12001         1.27379
C         52.69841        22.36221         4.58793
C         54.13669        24.39156         4.17104
C         52.87513        23.57363         3.94969
C         54.30903        25.49383         3.14961
C         53.22802        26.05924         2.50412
C         54.62280        27.98821         1.66510
C         53.36459        27.30464         1.74140
C         54.79252        29.18308         0.94172
C         53.67196        29.77790         0.28380
C         55.06738        31.62993        -0.64052
C         53.72162        31.05436        -0.28529
C         55.10292        33.13928        -0.75624
C         53.90618        33.84912        -1.05870
C         55.27247        35.77654        -1.75934
C         53.94547        35.14927        -1.56270
C         55.35990        37.20017        -2.27214
C         54.06781        37.71936        -2.77448
C         55.31083        40.34112        -2.04729
C         54.15145        39.95596        -2.72717
C         55.30202        41.70163        -1.56422
C         54.06440        42.41788        -1.49270
C         55.26986        44.39618        -0.54645
C         54.09666        43.90938        -1.33301
C         55.15650        45.67054         0.23687
C         53.96373        46.52563        -0.15611
C         55.20341        48.52602         0.59889
C         54.00710        47.90713         0.16957
C         55.21629        49.92146         0.95003
C         53.94425        50.63019         1.11245
C         53.88507        51.94937         1.69815
C         56.61577        23.98966         3.98427
C         55.39397        23.56739         4.34150
C         56.83068        25.25545         3.24191
C         55.63359        26.15004         3.11429
C         57.14784        27.97116         2.08143
C         55.79062        27.44875         2.39136
C         57.26364        29.21924         1.44250
C         56.09042        29.85281         0.85409
C         57.55630        31.65941        -0.11457
C         56.21199        31.03074         0.14838
C         57.46574        33.17863        -0.01168
C         56.30820        33.85068        -0.62703
C         57.62215        35.95061        -0.95712
C         56.40873        35.21603        -1.00692
C         57.66566        37.36052        -1.37362
C         56.50294        38.06593        -1.85857
C         57.68800        40.20061        -1.47387
C         56.49144        39.49678        -1.84114
C         57.71129        41.60909        -1.19901
C         56.49269        42.34477        -1.16327
C         57.70495        44.33566        -0.24571
C         56.46269        43.70165        -0.63784
C         57.69609        45.70240         0.15523
C         56.46643        46.41918         0.29272
C         57.68974        48.48607         0.83967
C         56.45389        47.78999         0.59264
C         57.65006        49.85508         1.11760
C         56.43619        50.55247         1.19060
C         59.38617        25.28244         3.63133
C         58.19714        25.89302         3.03662
C         59.55657        27.95625         2.60932
C         58.28604        27.30731         2.59729
C         59.67772        29.27369         2.01361
C         58.54732        29.86712         1.37539
C         59.90565        31.82154         0.75690
C         58.68239        31.12367         0.73176
C         60.01105        33.16626         0.19400
C         58.76926        33.94050         0.03540
C         60.08579        35.92709        -0.59235
C         58.81122        35.30832        -0.50598
C         60.12827        37.43053        -0.65056
C         58.87032        38.06097        -1.20625
C         60.15741        40.16408        -1.25349
C         58.90803        39.47442        -1.33565
C         60.17239        41.56059        -1.00219
C         58.93566        42.26542        -0.86889
C         60.17192        44.29341        -0.16930
C         58.93758        43.63604        -0.43002
C         60.17609        45.67212         0.26936
C         58.94125        46.37827         0.39821
C         60.17202        48.37943         1.06810
C         58.94540        47.75392         0.77840
C         60.55653        25.99300         3.71617
C         60.66112        27.30215         3.19441
C         60.90439        29.98095         2.00490
C         61.01387        31.22358         1.41007
C         61.21010        33.79986        -0.07469
C         61.24425        35.17906        -0.39761
C         61.34773        38.04337        -1.29419
C         61.36475        39.38392        -1.46810
C         61.39281        42.26493        -0.77315
C         61.38783        43.57937        -0.37479
C         61.38188        46.34644         0.56898
C         61.37372        47.67648         0.97120
O         35.45145        52.54636        -0.87273
O         40.72076        50.86752        -2.04461
O         23.57148        27.17425        -0.79239
O         57.52991        25.04466         1.97907
O         30.14000        33.94567         1.42950
O         35.84713        22.56943         0.27774
O         38.85650        26.69987        -3.87004
O         48.54226        40.45464        -3.98173
O         25.25722        45.86603         3.58288
O         42.52655        30.91059        -4.03885
O         51.87866        33.92314         0.33180
O         55.64432        27.40133         3.88330
O         33.95312        38.94671        -2.41475
O         41.94898        20.63517        -0.63169
O         48.50337        37.81035        -4.27806
O         54.17444        38.84994        -3.58217
O         44.76189        41.73362        -0.24648
O         41.63883        34.73353        -4.24976
O         35.94587        26.85942        -4.39901
O         42.29222        42.22324        -3.04411
O         50.63741        49.92088         2.01106
O         51.70893        38.92324        -3.79750
O         35.85082        31.46492        -4.30432
O         32.93208        22.12170        -4.10061
O         44.21313        33.80991        -1.15280
O         55.70739        36.05975        -3.15534
O         57.87901        33.77336         1.23675
O         47.35132        35.25939        -3.98232
O         36.08097        24.23787        -4.02299
O         52.00607        28.87521        -1.21206
O         37.63724        35.19716        -0.76290
O         36.05401        48.99653         1.93737
O         39.20623        30.04654        -4.36507
O         35.19777        41.57475         1.02541
O         48.73321        52.95581        -0.76895
O         26.80889        26.10341         0.84876
O         49.73522        26.36598         3.02710
O         33.07446        31.55830        -3.78675
O         43.05813        22.45998         2.24400
O         26.50102        40.31020         3.45073
O         51.48595        41.92025         0.12213
H         52.19703        42.38325         0.61578
O         38.21274        22.07693         1.63788
H         37.31370        22.48107         1.55950
O         30.24564        50.29119        -0.27980
H         31.04995        50.09051        -0.80488
O         43.78038        17.93865         0.48113
H         43.01678        17.39776         0.18659
O         46.49577        20.88888         0.14490
H         47.33271        21.37624        -0.05686
O         30.20481        45.83928        -1.00985
H         30.04055        46.79600        -1.15500
O         51.69942        47.05083        -2.43032
H         52.27015        47.85650        -2.48501
O         60.17913        37.82271         0.77142
H         60.19982        38.80378         0.79784
O         29.91286        25.69490        -0.19640
H         29.14980        25.30768         0.28598
O         28.77304        26.04423        -3.68133
H         28.65489        25.36103        -4.38236
O         47.28867        23.89709         3.61341
H         47.81680        23.82618         4.43567
O         44.37362        25.58251         2.09605
H         43.82326        24.89438         2.52973
O         32.59076        24.48027        -4.67970
H         32.77367        23.54969        -5.00522
O         37.72066        53.29235        -1.71804
H         36.76238        53.44226        -1.91048
O         38.88351        17.82514        -0.61080
H         39.11390        18.51841        -1.26592
O         34.47050        50.67790         2.94701
H         34.98349        49.86450         3.17269
O         54.87008        45.26346         1.63625
H         55.68417        44.84487         1.98955
O         53.95555        25.07876         5.45573
H         53.24726        25.74731         5.34065
O         49.90330        36.65945        -0.41737
H         50.11236        35.94778         0.22647
O         43.03748        36.90996        -0.51930
H         43.59122        36.09732        -0.51181
O         54.35836        44.39819        -2.71045
H         53.55310        44.22961        -3.24539
O         53.06478        49.30262        -1.52516
H         53.95775        49.71162        -1.52830
O         32.60306        29.33116        -0.56571
H         31.95739        29.25937         0.18273
O         45.20072        48.95710         1.17246
H         45.21738        48.06504         1.57846
O         27.78378        23.49489        -4.33528
H         26.88837        23.78269        -4.61245
O         24.19101        34.96393        -0.04666
H         23.44225        34.34169        -0.17247
O         45.69415        50.13316        -2.25969
H         44.83133        50.16192        -2.74108
O         57.92539        31.37369        -1.50169
H         57.08589        31.33717        -2.02891
O         30.65900        30.94164        -3.25076
H         31.22634        30.73032        -4.03178
O         48.07564        23.04825         0.15924
H         47.87907        23.54481        -0.66407
O         24.27078        27.56238         2.72962
H         24.52499        28.30024         3.32247
O         24.10274        30.68919        -0.62438
H         23.52354        29.92118        -0.82425
O         48.93522        26.34704        -1.14198
H         49.19397        27.07653        -1.74759
O         32.13674        28.99296        -4.18923
H         32.67503        28.53609        -4.87009
O         43.07208        50.28844        -2.61247
H         42.15764        50.35257        -2.98927
O         30.18817        28.81471         0.75757
H         30.17529        27.83196         0.83017
O         55.28013        31.17766        -2.05126
H         55.00359        30.23639        -2.10267
O         46.13087        39.84997        -4.28643
H         46.94989        39.66572        -4.80744
O         37.38904        50.36389        -1.83344
H         37.54757        51.31386        -2.06250
O         38.50793        23.64929        -3.49247
H         38.50924        24.29576        -4.23264
H         23.10839        23.17236        -0.66034
H         21.31535        24.14469         0.68001
H         21.48618        26.38063         1.69030
H         21.62140        28.37968         2.25624
H         21.66275        30.77627         2.50832
H         21.85957        32.58377         3.05994
H         21.89407        34.98505         3.39982
H         21.63384        36.89483         3.15085
H         21.60130        39.31923         3.35083
H         21.45786        41.20032         3.02427
H         21.34314        43.63146         2.79532
H         21.46188        45.21112         1.11902
H         23.45836        49.03131         0.83038
H         21.49735        47.57819         0.38932
H         24.52990        22.42372        -1.72548
H         24.79090        50.20730         2.37140
H         26.27955        21.52045        -3.13479
H         26.89195        51.50162         2.35082
H         30.01700        19.32277        -1.50532
H         27.96017        20.52305        -2.12191
H         30.71773        53.57047         2.77755
H         28.67837        52.21610         3.05238
H         31.70200        18.34393        -1.36193
H         32.14525        54.76353         1.97981
H         33.68255        17.30406        -0.36007
H         34.17288        56.05540         1.56758
H         36.87319        15.94491         2.35765
H         34.99103        16.81522         1.07942
H         37.83766        58.23270         1.22233
H         35.72989        57.03566         1.14312
H         38.37759        15.13022         3.16639
H         39.44928        59.14343         1.34908
H         42.56730        15.17354         4.07407
H         40.33870        14.12891         4.27610
H         43.70878        59.02109         1.76276
H         41.59115        60.28112         1.76935
H         44.27759        16.01856         3.95328
H         45.20401        57.96110         2.16660
H         46.42649        17.12080         3.82619
H         47.30792        56.75712         2.11330
H         49.99964        19.49478         4.48784
H         48.04255        18.12291         4.04793
H         51.07098        54.75760         1.83610
H         48.98834        55.95519         1.79145
H         51.45044        20.64312         4.96465
H         52.75236        53.71836         2.07064
H         53.50639        21.93069         5.19403
H         54.80642        52.41604         2.07079
H         57.48555        23.33634         4.14938
H         55.30645        22.60155         4.86050
H         58.57681        50.41517         1.29734
H         56.46705        51.62276         1.43376
H         59.33762        24.24462         3.98622
H         60.20247        49.43188         1.37844
H         61.44557        25.52837         4.16521
H         61.63784        27.80000         3.24143
H         61.79102        29.55312         2.49114
H         61.97318        31.75739         1.45397
H         62.16186        33.26039         0.02952
H         62.22563        35.66766        -0.47067
H         62.24498        37.43992        -1.49089
H         62.27421        39.89013        -1.82365
H         62.35096        41.74180        -0.89539
H         62.35138        44.07681        -0.20428
H         62.34528        45.82627         0.49408
H         62.32048        48.18184         1.20658
