         252
 CSIRO Nanostructure Databank - Neutral Graphene Oxide Data Set
C         30.32691        31.65688        -0.80197
C         30.42098        32.89962        -0.89775
C         30.39139        36.09598        -0.83877
C         30.37804        37.32677        -0.66566
C         30.40755        40.40854         0.03744
C         30.31623        41.66365         0.22116
C         32.64237        28.96813         0.46495
C         31.58890        29.52580         0.14564
C         32.65166        31.72394         0.15319
C         31.31048        30.95504         0.04184
C         32.80138        32.98583        -0.73332
C         31.51312        33.81803        -0.84919
C         32.76517        35.99547        -0.78842
C         31.48947        35.18047        -0.81401
C         32.72424        37.44984        -0.45866
C         31.53257        38.15755        -0.38929
C         32.73234        40.32028         0.08164
C         31.50220        39.55998        -0.05973
C         32.71943        41.75276         0.21024
C         31.44714        42.47702         0.29274
C         32.72194        44.52816         0.42073
C         31.66515        43.87743         0.46936
C         35.32720        27.37107        -0.11575
C         35.26522        28.75459         0.40100
C         33.98864        29.48772         0.69157
C         35.23966        31.67525         0.06722
C         33.97237        31.08588         0.68604
C         35.22248        33.08776        -0.19343
C         34.03173        33.78289        -0.35788
C         35.28737        36.00125        -0.24127
C         34.05592        35.24163        -0.58727
C         35.26578        37.40770        -0.14898
C         33.95465        38.10619         0.13993
C         35.18362        40.30915         0.01831
C         33.97112        39.61609        -0.01034
C         35.17977        41.71541         0.25362
C         33.97790        42.43964         0.29802
C         35.34555        44.62572         0.77059
C         34.05926        43.94726         0.32737
C         35.50131        46.00269         1.27147
C         37.76104        27.36702        -0.32093
C         36.44863        26.89540        -0.43123
C         37.77274        28.80684        -0.12092
C         36.51101        29.52371         0.09209
C         37.76046        31.65044        -0.31306
C         36.44491        30.92605        -0.00843
C         37.68541        33.11084         0.17396
C         36.52033        33.81599        -0.52344
C         37.72601        35.99641        -0.20243
C         36.50425        35.29814        -0.23254
C         37.70947        37.41938        -0.20968
C         36.47837        38.12466        -0.15422
C         37.77136        40.40282        -0.41361
C         36.42271        39.59836        -0.52358
C         37.75749        41.58824         0.54018
C         36.45629        42.30858         0.74819
C         37.85487        44.36629         1.55973
C         36.49718        43.74000         1.20643
C         37.94826        45.85278         1.70149
C         36.64840        46.33802         1.68822
C         40.30484        24.63312        -0.57094
C         39.19799        25.21242        -0.63691
C         40.32601        27.34476        -0.14883
C         38.99132        26.59427        -0.18005
C         40.31987        28.85385        -0.39135
C         38.99656        29.47190        -0.01135
C         40.22806        31.65678         0.50527
C         38.95313        30.91809         0.28388
C         40.25834        33.18642         0.51806
C         38.99303        33.85463         0.01780
C         40.21061        35.94225        -0.37531
C         38.99180        35.24335        -0.18627
C         40.19640        37.39427        -0.48572
C         38.95483        38.15717        -0.22527
C         40.22651        40.26782         0.02657
C         38.99324        39.53902        -0.14394
C         40.24800        41.62195         0.31424
C         39.04061        42.34986         0.65691
C         40.38083        44.38518         1.19243
C         39.08788        43.63003         1.18745
C         40.50430        45.81835         1.62286
C         39.19970        46.47182         2.26638
C         40.40158        48.56384         1.81438
C         39.36274        47.93436         2.02951
C         42.89206        24.51273        -0.41724
C         41.64933        25.07834        -0.50063
C         42.70645        27.25829         0.51617
C         41.66562        26.66249        -0.47048
C         42.77524        28.78733         0.38696
C         41.55225        29.52381         0.22936
C         42.72799        31.66161         0.57352
C         41.53263        30.93274         0.41851
C         42.79742        33.09233         0.37045
C         41.52763        33.75021        -0.08611
C         42.75351        35.97503        -0.15091
C         41.49680        35.20552        -0.43066
C         42.80921        37.41083        -0.55935
C         41.50006        38.15358        -0.52670
C         42.76623        40.24572        -0.16688
C         41.51940        39.50269         0.18909
C         42.66637        41.70649        -0.46518
C         41.59502        42.29491         0.48967
C         42.68172        44.58968        -0.00356
C         41.46212        43.79690         0.33243
C         42.75306        46.02553         0.42739
C         41.64747        46.65747         1.07079
C         42.81903        48.73323         0.87286
C         41.63646        48.08722         1.25523
C         43.89284        25.31497        -0.13182
C         45.29176        27.17210         0.94457
C         44.10652        26.53672         0.36840
C         45.20529        28.73907         1.07583
C         43.96582        29.45013         0.69371
C         45.24181        31.69605         1.02668
C         43.96588        30.92153         0.84809
C         45.28779        33.22143         0.93404
C         43.98152        33.79874         0.42682
C         45.32332        35.97209         0.08662
C         44.01091        35.27498         0.26853
C         45.34104        37.36995        -0.10913
C         44.08722        38.12961        -0.35602
C         45.27869        40.32388        -0.43235
C         44.08143        39.57976         0.09061
C         45.26493        41.73039        -0.44615
C         43.98851        42.45940        -0.32105
C         45.19882        44.62815        -0.20276
C         43.94943        43.82717        -0.23320
C         45.03218        46.08263        -0.70768
C         43.91461        46.75402         0.04113
C         43.78286        48.10846         0.33955
C         47.57034        27.46206         1.18984
C         46.65494        26.69735         0.67964
C         47.79784        28.81449         1.25098
C         46.50929        29.48399         0.89912
C         47.79737        31.72724         0.81155
C         46.51931        30.96486         0.75268
C         47.77294        33.05020         0.47756
C         46.47166        33.72302         0.07333
C         47.74863        35.94553        -0.12527
C         46.53428        35.24894         0.06889
C         47.74700        37.34387        -0.33999
C         46.53929        38.06791        -0.33848
C         47.79470        40.26192        -0.83439
C         46.46401        39.48897        -0.90424
C         47.76986        41.75552        -0.71207
C         46.48775        42.45421        -0.52483
C         47.80214        44.64462        -0.56119
C         46.52021        43.89764        -0.28987
C         47.45360        46.02952        -0.66066
C         46.41353        46.69528        -0.57871
C         50.22675        29.09373         1.99437
C         48.84587        29.66791         1.91535
C         50.25329        31.58065         0.81075
C         49.03935        31.01436         1.12641
C         50.23744        32.86454        -0.04049
C         49.06847        33.77191         0.33624
C         50.27289        35.81859        -0.70553
C         49.05649        35.21956        -0.04356
C         50.28720        37.32818        -0.86161
C         49.00158        38.07446        -0.68589
C         50.32738        40.24651        -0.64458
C         49.03370        39.54128        -0.28250
C         50.34870        41.73685        -0.51249
C         49.04392        42.49099        -0.38086
C         50.34366        44.46330        -0.62860
C         48.99478        43.99312        -0.54554
C         51.30386        29.65062         1.75198
C         52.68775        31.67568         0.91476
C         51.55524        30.93573         1.16718
C         52.55397        32.87532         0.42081
C         51.57746        33.68146        -0.01650
C         52.71904        35.94448        -0.56451
C         51.57489        35.01689        -0.63424
C         52.63373        37.18371        -0.67584
C         51.56259        38.10497        -0.70201
C         52.66969        40.40340        -0.64804
C         51.53442        39.50785        -0.65574
C         52.78993        41.63487        -0.57030
C         51.64670        42.51270        -1.02546
C         51.46603        43.93322        -0.55003
O         40.80887        37.99462        -1.75621
O         45.08035        27.85802         2.21962
O         49.80110        42.11121         0.81610
O         39.38659        31.22055         1.66550
O         49.34796        34.78441         1.34632
O         50.80188        35.10109        -1.86068
O         46.48908        30.11726        -0.44772
O         39.70479        26.91957         1.07069
O         41.53804        34.15842        -1.47652
O         45.95525        44.39662         1.01275
O         47.97987        41.05509        -2.03500
O         36.12350        39.45840        -1.90517
O         43.60127        37.82489        -1.71038
O         31.64795        31.73068         1.21432
O         35.00055        44.49435        -0.62279
O         44.56559        31.27027         2.23799
O         33.59694        35.63254        -1.95591
O         43.12089        35.90434         1.27093
O         40.95216        44.73781         2.52277
O         36.92055        43.82871         2.58368
O         49.50164        37.79598        -2.02326
O         34.75200        28.92079         1.74986
O         37.03549        41.40972         1.77827
O         41.60282        44.34946        -0.99190
O         42.08591        42.03043         1.83677
H         41.62860        42.63623         2.46245
O         38.01747        40.99328        -1.70566
H         37.41687        40.48303        -2.32648
O         44.68893        45.98728        -2.08417
H         44.45622        46.87616        -2.42359
O         33.07618        32.44147        -2.05315
H         33.23647        33.19375        -2.66366
O         44.28861        39.52372         1.55196
H         44.12832        40.42304         1.91267
O         40.43482        29.09189        -1.83081
H         41.26554        28.65054        -2.13845
O         42.29694        26.98128         1.84758
H         42.97073        27.34745         2.46442
O         48.91746        39.55401         1.16266
H         49.19124        40.45297         1.47670
O         40.38176        33.59026         1.91597
H         39.84457        32.96864         2.45807
O         42.17502        41.88385        -1.81398
H         42.69854        41.31847        -2.41919
O         48.35200        30.00203         3.20973
H         49.04776        30.48506         3.70230
O         51.59878        42.49449        -2.42425
H         52.39932        42.92315        -2.78957
O         46.17040        39.26961        -2.31363
H         46.61895        39.99102        -2.81659
O         37.36711        33.09891         1.58266
H         37.94235        32.43037         2.02592
O         38.00825        31.63655        -1.73010
H         38.25064        30.72458        -1.99814
O         46.16513        33.30201        -1.27870
H         46.94187        33.46534        -1.85425
O         34.05430        31.44598         2.07193
H         33.15123        31.36625         2.45611
O         50.00567        32.46786        -1.39861
H         50.70066        31.83419        -1.67383
O         41.57604        39.14276         1.60635
H         41.77086        39.97055         2.10591
O         42.10685        27.05912        -1.78860
H         41.75493        26.42728        -2.45081
O         33.79045        37.89043         1.59378
H         33.02683        38.42460         1.90168
O         45.50289        33.73761         2.25864
H         44.92434        33.22656         2.86907
O         39.18529        46.20592         3.65964
H         39.79341        45.44878         3.83286
O         36.69283        33.71914        -1.95430
H         36.04968        34.32139        -2.38406
