         640
 CSIRO Nanostructure Databank - Neutral Graphene Oxide Data Set
C         22.94316        27.41521        -0.32431
C         22.94231        28.79244        -0.30709
C         22.96412        31.70316        -0.11782
C         22.96708        33.07547        -0.04176
C         22.94271        35.99001         0.20181
C         22.94844        37.31518         0.47676
C         23.00632        40.25442         0.81155
C         22.99441        41.64599         0.78583
C         22.98520        44.58324         0.77418
C         22.99290        45.96116         0.77900
C         25.35203        24.56143        -0.39696
C         24.16961        25.26111        -0.31255
C         25.38437        27.40462        -0.18919
C         24.16598        26.69761        -0.25227
C         25.39686        28.81938        -0.25076
C         24.15902        29.52652        -0.27419
C         25.40987        31.66689        -0.30623
C         24.17190        30.96425        -0.24028
C         25.41165        33.09347        -0.27476
C         24.17795        33.81889        -0.11535
C         25.38145        35.98192        -0.08544
C         24.16870        35.23928         0.03129
C         25.42021        37.36153         0.15660
C         24.22910        38.02864         0.81234
C         25.40349        40.24244         0.44844
C         24.19397        39.53332         0.63213
C         25.40669        41.67201         0.46068
C         24.18290        42.38531         0.61990
C         25.41096        44.54010         0.47174
C         24.18724        43.83879         0.62347
C         25.42803        45.97121         0.46500
C         24.20665        46.68224         0.62536
C         25.39902        48.79631         0.47430
C         24.22084        48.10603         0.62803
C         27.91211        23.11166        -0.67678
C         27.83463        24.50532        -0.40061
C         26.61380        25.20718        -0.30220
C         27.89715        27.40161        -0.34304
C         26.65764        26.66187         0.11400
C         27.87892        28.78128        -0.47668
C         26.64663        29.53341        -0.35959
C         27.89872        31.67998        -0.52339
C         26.64970        30.94321        -0.42571
C         27.87197        33.12094        -0.54733
C         26.64039        33.79906        -0.45708
C         27.88198        36.03663        -0.69639
C         26.57141        35.26472        -0.59293
C         27.87056        37.44463        -0.23507
C         26.63953        38.10792         0.04998
C         27.86538        40.24392         0.21886
C         26.64407        39.52221         0.26542
C         27.87035        41.68155         0.22133
C         26.64251        42.39491         0.32663
C         27.86871        44.53089         0.15613
C         26.64508        43.81916         0.32660
C         27.88756        45.98104         0.12588
C         26.65357        46.69566         0.29706
C         27.87642        48.84767         0.12773
C         26.64158        48.11747         0.30200
C         27.91694        50.26475         0.12458
C         30.35028        23.02782        -0.47523
C         29.11816        22.41798        -0.76436
C         30.31727        24.45843        -0.15163
C         29.07825        25.25020        -0.31649
C         30.39695        27.34234        -0.81798
C         29.11360        26.63516        -0.42247
C         30.40247        28.82413        -0.58383
C         29.11928        29.52681        -0.93938
C         30.36824        31.69535        -0.55807
C         29.11875        30.99317        -0.59396
C         30.36080        33.10367        -0.63207
C         29.12748        33.84856        -0.66169
C         30.38150        36.02294        -0.71742
C         29.13020        35.25544        -0.70093
C         30.36470        37.46232        -0.31694
C         29.07288        38.13493        -0.05166
C         30.35462        40.24592         0.15610
C         29.09487        39.53430         0.14628
C         30.35101        41.66340         0.05974
C         29.09419        42.38909         0.06022
C         30.29756        44.53972        -0.33868
C         29.06798        43.80457        -0.01509
C         30.34569        45.99976        -0.21611
C         29.09429        46.69606        -0.04352
C         30.31361        48.84624        -0.24665
C         29.09845        48.13410        -0.05267
C         30.32031        50.24585        -0.24975
C         29.10534        50.94572        -0.05281
C         32.88386        20.22488        -0.48902
C         31.66990        20.89360        -0.46419
C         32.84897        23.00777        -0.36911
C         31.60810        22.30996        -0.42105
C         32.84959        24.46723        -0.49742
C         31.62930        25.22246        -0.15287
C         32.86320        27.36873        -0.23484
C         31.64853        26.66787        -0.36645
C         32.84993        28.81863        -0.21113
C         31.60664        29.52421        -0.40612
C         32.86591        31.66231        -0.32171
C         31.61882        30.97216        -0.43583
C         32.91421        33.08861        -0.40932
C         31.66160        33.79831        -0.73700
C         32.90097        36.00986        -0.28049
C         31.68278        35.29527        -0.72225
C         32.86143        37.33912         0.05377
C         31.56565        38.04177         0.39523
C         32.79168        40.24891         0.35133
C         31.58645        39.54576         0.23959
C         32.79267        41.65687         0.28743
C         31.59143        42.35070         0.07124
C         32.83682        44.57808        -0.06546
C         31.62537        43.78713        -0.25713
C         32.81780        45.94824        -0.24629
C         31.57090        46.65617        -0.32380
C         32.77698        48.83242         0.24573
C         31.62730        48.14839        -0.52579
C         32.80980        50.30315        -0.13038
C         31.59294        50.96335        -0.41535
C         32.82751        52.98279        -0.92977
C         31.61700        52.30847        -0.81941
C         35.45515        18.78845        -0.73824
C         35.39593        20.18740        -0.47602
C         34.12074        20.90847        -0.43149
C         35.31905        23.07593        -0.10602
C         34.09280        22.32818        -0.33494
C         35.35825        24.46050        -0.04154
C         34.16006        25.25313        -0.35322
C         35.26736        27.35362         0.57180
C         34.07242        26.66143        -0.00883
C         35.29834        28.81906         0.20632
C         34.08285        29.51613        -0.03915
C         35.32808        31.65675        -0.03720
C         34.09265        30.94916        -0.13043
C         35.35618        33.08547        -0.15275
C         34.12427        33.80503        -0.32792
C         35.35529        35.95424        -0.13699
C         34.15225        35.26589        -0.28055
C         35.39636        37.37141         0.09716
C         34.11037        38.04327         0.39725
C         35.33811        40.30020         0.38502
C         34.07798        39.53692         0.55526
C         35.33943        41.66484         0.45627
C         34.05222        42.39515         0.54405
C         35.35021        44.59359         0.23845
C         34.06325        43.87799         0.35313
C         35.34030        45.94977         0.07691
C         34.12544        46.69807        -0.43082
C         35.29885        48.84122         0.07928
C         34.10714        48.14461         0.01250
C         35.28854        50.33884         0.31837
C         34.02450        51.00608        -0.17514
C         35.30568        53.12658        -0.78309
C         34.02962        52.35139        -0.58241
C         35.34223        54.42166        -0.00242
C         37.86988        18.75583        -0.36828
C         36.64592        18.09787        -0.67058
C         37.85189        20.17106        -0.19803
C         36.59937        20.86676        -0.23405
C         37.84319        23.05405         0.23846
C         36.54962        22.29809         0.13699
C         37.81758        24.52703         0.15794
C         36.57988        25.21150         0.18831
C         37.77983        27.34087         0.37482
C         36.56312        26.62424         0.28889
C         37.77031        28.79322         0.40604
C         36.53766        29.50910         0.26192
C         37.79145        31.64708         0.19249
C         36.55054        30.93944         0.12953
C         37.80211        33.08557         0.06828
C         36.60167        33.77768        -0.11360
C         37.87291        35.97368        -0.02518
C         36.63572        35.24443        -0.48052
C         37.85720        37.37734         0.14714
C         36.59248        38.07794         0.15668
C         37.78558        40.22797         0.86808
C         36.63876        39.58872         0.07349
C         37.82320        41.72887         0.61876
C         36.58677        42.43236         0.47218
C         37.82658        44.55979         0.43412
C         36.58371        43.84112         0.43152
C         37.83836        45.97755         0.36568
C         36.54370        46.72195         0.53752
C         37.79737        48.85134         0.09024
C         36.56133        48.16167         0.11736
C         37.81134        50.27001        -0.08368
C         36.56551        51.01585        -0.15830
C         37.83857        53.10740        -0.74836
C         36.56362        52.33693        -0.51094
C         37.78327        54.51444        -0.19273
C         36.52315        55.07759         0.17984
C         40.28644        15.93676         0.10535
C         39.17385        16.62403        -0.30249
C         40.27397        18.75548         0.21711
C         39.10697        18.04677        -0.18080
C         40.28639        20.19038         0.25934
C         39.08492        20.86856         0.01079
C         40.34901        23.03309         0.18642
C         39.09060        22.34585        -0.24073
C         40.30916        24.49660         0.03869
C         39.02894        25.24113         0.19870
C         40.26303        27.35918         0.80669
C         39.01600        26.63510         0.35734
C         40.25652        28.82658         0.50288
C         39.00889        29.51186         0.42672
C         40.28318        31.67393         0.58359
C         38.99703        30.93403         0.34184
C         40.26426        33.10689         0.14400
C         39.07084        33.79860         0.05812
C         40.30146        35.95196         0.23461
C         39.07903        35.25488         0.04529
C         40.28561        37.35278         0.45229
C         39.07942        38.07990         0.40783
C         40.27514        40.23447         0.65197
C         39.10334        39.52933         0.59094
C         40.29312        41.69157         1.03685
C         39.02723        42.42482         0.67105
C         40.29980        44.55527         0.54057
C         39.05631        43.84164         0.52778
C         40.29439        45.97372         0.41956
C         39.05572        46.68928         0.33153
C         40.27512        48.83259         0.13363
C         39.04513        48.12857         0.19382
C         40.28851        50.25588         0.00228
C         39.05470        50.96626        -0.14747
C         40.27611        53.10017        -0.20630
C         39.07347        52.37662        -0.30364
C         40.25153        54.53807        -0.18914
C         38.99831        55.23353        -0.09653
C         40.20077        57.35596         0.08318
C         39.02099        56.65718         0.08112
C         42.43156        15.89746         1.31333
C         41.40538        16.62344         0.66863
C         42.56481        18.76957         1.17282
C         41.43802        18.05206         0.64398
C         42.69513        20.21869         0.96874
C         41.53633        20.89371         0.53237
C         42.78429        23.06734         0.54783
C         41.52962        22.34350         0.40199
C         42.80062        24.44953         0.49867
C         41.59591        25.23338         0.21516
C         42.74098        27.40076         0.40827
C         41.56111        26.68741         0.45629
C         42.75548        28.81907         0.26108
C         41.49078        29.52585         0.29531
C         42.67404        31.59460        -0.47213
C         41.48943        30.90985         0.13480
C         42.69896        33.07874        -0.22810
C         41.53389        33.78519        -0.01325
C         42.76001        35.91967         0.07271
C         41.55240        35.23724         0.10047
C         42.83285        37.31678         0.55287
C         41.54993        38.04140         0.79811
C         42.84084        40.28377         0.51962
C         41.57724        39.54517         0.79978
C         42.79455        41.71086         0.47219
C         41.56499        42.42213         0.64022
C         42.81561        44.57572         0.79926
C         41.53428        43.82083         0.59084
C         42.77332        46.01386         0.34017
C         41.53820        46.70325         0.33641
C         42.75599        48.83724         0.16650
C         41.52328        48.12096         0.18832
C         42.76168        50.27766         0.09352
C         41.52559        50.97448        -0.00259
C         42.74354        53.12803        -0.08993
C         41.52027        52.40253        -0.08643
C         42.72689        54.56274        -0.12053
C         41.47438        55.25702        -0.11550
C         42.68032        57.38956        -0.01025
C         41.45512        56.68083        -0.02217
C         43.39901        16.58945         2.02116
C         45.42686        19.12988         2.07937
C         43.43776        17.99379         1.95764
C         45.27406        20.31960         1.33242
C         43.97822        20.94703         1.05918
C         45.27029        23.03415         0.58584
C         44.01719        22.32287         0.75008
C         45.30390        24.44630         0.39286
C         44.05773        25.19719         0.65092
C         45.25292        27.39938         0.14180
C         44.03035        26.68548         0.52967
C         45.24550        28.76573         0.01144
C         43.98925        29.51841         0.07270
C         45.22124        31.61219        -0.40264
C         43.98849        30.89389        -0.20311
C         45.22053        33.03145        -0.47577
C         43.93433        33.79890        -0.67965
C         45.16493        35.94085        -0.33971
C         43.99020        35.24263        -0.23563
C         45.15247        37.44151        -0.50496
C         44.08509        38.11368         0.32907
C         45.25282        40.29284        -0.08787
C         44.03653        39.59574         0.27013
C         45.25382        41.71692        -0.03442
C         44.03717        42.43828         0.26005
C         45.34757        44.59181         0.49047
C         44.05461        43.82513         0.39516
C         45.22992        45.95888        -0.20819
C         43.97891        46.71859         0.16747
C         45.26049        48.85744         0.47790
C         43.98005        48.12414         0.16410
C         45.24432        50.31627         0.10450
C         43.99750        51.00123         0.05130
C         45.21470        53.15720        -0.07533
C         43.98382        52.42838        -0.04805
C         45.20192        54.58474        -0.11381
C         43.94198        55.29717        -0.10794
C         43.88608        56.71724        -0.06916
C         47.79804        19.00655         1.67350
C         46.64645        18.46852         2.23670
C         47.75335        20.27264         1.06465
C         46.50367        20.95403         0.94460
C         47.72721        23.03622         0.31491
C         46.50228        22.33478         0.55984
C         47.72037        24.43354         0.02367
C         46.47671        25.13260         0.07300
C         47.73852        27.30445        -0.05726
C         46.41940        26.58590        -0.37817
C         47.67921        28.77949        -0.40155
C         46.49354        29.47100        -0.30947
C         47.68246        31.63678        -0.61212
C         46.46289        30.91576        -0.45480
C         47.66629        33.05465        -0.63817
C         46.43781        33.73184        -0.54614
C         47.71649        35.97632        -0.49308
C         46.43902        35.20121        -0.34109
C         47.66615        37.43887        -0.63153
C         46.49024        38.14731        -0.42761
C         47.64699        40.31603        -0.95235
C         46.44287        39.57419        -0.42557
C         47.69120        41.74883        -0.52367
C         46.49727        42.44378        -0.21593
C         47.73158        44.57235        -0.33184
C         46.54357        43.84985        -0.05173
C         47.73460        46.03689        -0.27059
C         46.51247        46.74735        -0.07867
C         47.72965        48.87288        -0.00926
C         46.51242        48.13134         0.05829
C         47.71653        50.30302         0.01255
C         46.46167        51.01520         0.02688
C         47.68217        53.16985        -0.07256
C         46.45686        52.45245        -0.05487
C         47.63952        54.58178        -0.12718
C         46.43794        55.26761        -0.14641
C         50.21959        20.26420         0.68085
C         48.98870        20.94068         0.67588
C         50.20174        23.03186         0.16506
C         48.97317        22.33056         0.36023
C         50.18001        24.45445        -0.09122
C         48.96470        25.12350        -0.21136
C         50.22037        27.33011        -0.42079
C         48.93931        26.57092        -0.66957
C         50.20919        28.74592        -0.41931
C         48.94659        29.46367        -0.84838
C         50.14239        31.65782        -0.42621
C         48.94570        30.94746        -0.59672
C         50.17740        33.06965        -0.51269
C         48.94282        33.77239        -1.02344
C         50.16964        35.95945        -0.60946
C         48.96141        35.25045        -0.76074
C         50.15707        37.36805        -0.55162
C         48.94965        38.12053        -1.04083
C         50.16151        40.28242        -0.66514
C         48.94792        39.59071        -0.73438
C         50.15676        41.71409        -0.73458
C         48.92836        42.43802        -0.59664
C         50.18210        44.58575        -0.86742
C         48.92842        43.86284        -0.57762
C         50.18563        46.08469        -0.72274
C         48.93564        46.76140        -0.34452
C         50.20788        48.87836        -0.23678
C         48.95883        48.17252        -0.19049
C         50.19261        50.31367        -0.12458
C         48.94772        51.01745        -0.05524
C         50.16978        53.13373        -0.01457
C         48.94344        52.45163        -0.04382
C         51.41487        20.94927         0.46959
C         52.74661        23.05915         0.24584
C         51.42759        22.32739         0.23908
C         52.65518        24.50312        -0.18381
C         51.44502        25.17546        -0.21755
C         52.65270        27.35307        -0.26229
C         51.42874        26.62624        -0.30830
C         52.64082        28.77588        -0.18937
C         51.39858        29.46141        -0.22378
C         52.65598        31.66581        -0.17860
C         51.36425        30.93525         0.09826
C         52.64637        33.07110        -0.25056
C         51.39383        33.79865        -0.37151
C         52.63796        35.94486        -0.30756
C         51.41106        35.21445        -0.42789
C         52.63913        37.35871        -0.23865
C         51.34636        38.11451        -0.02220
C         52.63207        40.20899        -0.47234
C         51.40968        39.55781        -0.47527
C         52.72045        41.64675        -0.80935
C         51.41968        42.43048        -0.92993
C         52.68447        44.57852        -0.66201
C         51.47698        43.88989        -0.77232
C         52.69485        46.03348        -0.56528
C         51.47344        46.76734        -0.52087
C         52.71979        48.92474        -0.57334
C         51.43479        48.17067        -0.36232
C         52.68660        50.33414        -0.05410
C         51.41827        51.04357        -0.06577
C         51.37924        52.44457         0.00217
C         55.00690        23.03581        -0.75546
C         53.87659        22.35147        -0.46017
C         55.08219        24.47367        -0.60625
C         53.90581        25.20209        -0.38517
C         55.09035        27.37964        -0.33812
C         53.89551        26.65203        -0.33989
C         55.10683        28.80314        -0.22083
C         53.88191        29.50685        -0.16005
C         55.11676        31.65798        -0.22733
C         53.87981        30.94800        -0.17997
C         55.11671        33.08347        -0.23738
C         53.88182        33.79547        -0.26721
C         55.11035        35.93577        -0.21562
C         53.88027        35.22339        -0.27461
C         55.10494        37.36227        -0.18980
C         53.86348        38.07300        -0.20686
C         55.09198        40.22562        -0.15270
C         53.86845        39.50677        -0.23706
C         55.11225        41.67000        -0.16951
C         53.93360        42.40911        -0.45221
C         55.16064        44.51605        -0.24119
C         53.92976        43.82630        -0.47571
C         55.24816        46.00841        -0.51419
C         53.93218        46.74185        -0.36819
C         55.13753        48.83826         0.18356
C         53.94323        48.12380        -0.19271
C         55.08223        50.21186         0.38554
C         53.86394        50.93799         0.31551
C         57.67712        24.47696        -0.65879
C         56.36964        25.17973        -0.79306
C         57.59466        27.35713        -0.13207
C         56.35453        26.67056        -0.58968
C         57.60644        28.82933        -0.22127
C         56.36236        29.52404        -0.24016
C         57.60279        31.65377        -0.21899
C         56.35979        30.94237        -0.23423
C         57.59868        33.08542        -0.19637
C         56.35664        33.80068        -0.21227
C         57.58622        35.94338        -0.12600
C         56.35118        35.22059        -0.18677
C         57.57395        37.37163        -0.07264
C         56.33419        38.08353        -0.11135
C         57.55315        40.22436         0.12156
C         56.32172        39.50899        -0.05135
C         57.53868        41.63407         0.27642
C         56.33841        42.36734         0.07064
C         57.61804        44.53185         0.16544
C         56.33159        43.80183         0.01677
C         57.56994        45.97641         0.46724
C         56.39060        46.69494         0.21109
C         57.49630        48.71657         1.01041
C         56.35505        48.08379         0.46573
C         58.83501        25.13518        -0.46396
C         60.10612        27.37790        -0.31087
C         58.88253        26.58311        -0.13164
C         60.06814        28.73529        -0.30226
C         58.83713        29.50431        -0.21795
C         60.05119        31.68684        -0.17581
C         58.83879        30.94179        -0.21123
C         60.04573        33.06055        -0.14810
C         58.82875        33.79995        -0.15527
C         60.03396        35.98320        -0.03942
C         58.82230        35.23638        -0.11049
C         60.02738        37.35349         0.02133
C         58.80563        38.09291         0.00717
C         60.02741        40.27024         0.09723
C         58.79504        39.51090         0.10442
C         60.04050        41.59145         0.37323
C         58.78619        42.29571         0.81405
C         59.94119        44.51764         1.23512
C         58.86541        43.78204         0.54192
C         59.87752        45.85728         1.40227
C         58.70631        46.61858         1.01910
C         58.64953        48.00122         1.28173
O         47.21940        35.54588         0.86712
O         43.83329        37.50216         1.62150
O         27.04304        35.78691        -1.87934
O         41.05664        24.94396        -1.16481
O         31.84542        34.57922        -1.99271
O         37.21779        22.54183         1.44543
O         58.63699        44.16200        -0.84883
O         44.35578        18.61130         2.80967
O         56.40793        26.11172        -1.95130
O         33.93973        43.28518         1.71740
O         41.55644        38.76876         2.07079
O         31.02236        24.78727         1.11331
O         34.07012        38.66290         1.75653
O         50.08162        45.45358        -2.06140
O         30.48366        37.12891        -1.72419
O         44.14684        26.03675         1.87837
O         33.54284        24.95529        -1.67514
O         30.96828        44.04950        -1.54981
O         58.14874        26.85439         1.13107
O         52.17558        41.96819        -2.12420
O         44.70701        37.67112        -1.88498
H         45.37178        37.28812        -2.49576
O         45.32144        48.85718         1.95806
H         44.52302        49.32611         2.28228
O         48.78536        26.54304        -2.13789
H         49.55102        26.04935        -2.50320
O         48.97879        38.05196        -2.51829
H         48.37409        38.77210        -2.83807
O         39.04140        22.51633        -1.70551
H         39.95782        22.47088        -2.05221
O         34.30041        46.77857        -1.89078
H         33.54989        47.33434        -2.22398
O         35.26384        50.49755         1.77824
H         36.02704        49.99678         2.13944
O         35.30519        53.50748        -2.19475
H         36.23966        53.72500        -2.44160
O         36.35984        46.80947         2.01963
H         36.31544        45.88869         2.35991
O         36.95342        39.87316        -1.32602
H         36.36226        39.33830        -1.89624
O         53.13665        23.10324         1.66898
H         53.96866        23.61996         1.72656
O         51.15470        38.18687         1.45344
H         51.13515        37.26582         1.79159
O         37.99371        53.27369        -2.22542
H         38.14494        52.37921        -2.60041
O         58.71854        42.18363         2.27847
H         58.69964        41.22828         2.49942
O         29.04092        29.50662        -2.41711
H         29.31959        28.59777        -2.69907
O         40.41251        31.75270         2.07202
H         39.60749        32.20291         2.40779
O         52.82895        49.07281        -2.04718
H         52.99526        48.17814        -2.41747
O         40.19411        27.25857         2.29519
H         40.93265        27.79574         2.65639
O         32.48852        48.71880         1.66260
H         33.18593        49.21859         2.14162
O         47.94744        27.22208         1.37486
H         47.16664        27.61224         1.82233
O         45.07918        45.64541        -1.62562
H         45.06003        46.48711        -2.12730
O         47.45313        40.33794        -2.45802
H         47.96044        41.10587        -2.80229
O         45.61398        44.82205         1.90268
H         44.73923        44.97703         2.34301
O         35.10929        27.30475         2.04487
H         35.91980        27.69314         2.43862
O         36.70288        35.27977        -1.95720
H         35.90674        34.81693        -2.29738
O         40.30708        41.66082         2.51675
H         40.92060        40.94097         2.78728
O         42.48696        31.46402        -1.95830
H         42.57365        30.51016        -2.17736
O         24.42431        37.83859         2.26815
H         24.40532        36.87259         2.43815
O         31.35842        37.76940         1.81651
H         32.16604        38.10238         2.27860
O         55.56968        46.11411        -1.94577
H         56.42114        45.64749        -2.09140
O         46.16953        26.54693        -1.81065
H         47.00697        26.28298        -2.26102
O         31.95275        48.34936        -1.94471
H         31.21213        47.98552        -2.47516
O         48.99556        33.64918        -2.50410
H         49.06288        32.69092        -2.70963
O         37.51663        40.03775         2.27630
H         38.23584        40.48375         2.77595
O         42.91445        44.71176         2.30034
H         42.62207        43.85621         2.68592
O         26.75670        26.64183         1.59353
H         25.97819        26.14594         1.92596
O         48.94383        29.34670        -2.32567
H         48.80668        28.38873        -2.53373
O         30.42182        27.16676        -2.32777
H         31.31274        27.44920        -2.63257
O         43.79882        33.90387        -2.14831
H         43.38872        33.05728        -2.45539
O         51.21353        30.97736         1.56732
H         51.20357        31.92128         1.83415
H         21.99637        26.85942        -0.38105
H         21.98011        29.31909        -0.34576
H         22.00219        31.17879        -0.05502
H         22.00836        33.59557         0.07858
H         21.97836        35.48468         0.05455
H         21.98964        37.84167         0.58072
H         22.05835        39.72953         0.99001
H         22.03433        42.15990         0.92472
H         22.02624        44.06169         0.89145
H         22.05255        46.51803         0.90012
H         25.31056        23.47324        -0.54575
H         23.20809        24.73211        -0.37295
H         25.37147        49.89375         0.48254
H         23.27330        48.64912         0.75534
H         26.98544        22.54672        -0.84500
H         26.99702        50.84543         0.27176
H         29.08611        21.34857        -1.01660
H         29.10344        52.04401        -0.02774
H         32.86936        19.12755        -0.53287
H         30.74124        20.30693        -0.48088
H         32.84870        54.02086        -1.28848
H         30.68316        52.82501        -1.08037
H         34.53713        18.23405        -0.97456
H         34.39632        54.88967         0.30776
H         36.63364        17.01329        -0.84249
H         36.51230        56.06520         0.66575
H         40.30868        14.83834         0.06124
H         38.30993        16.06550        -0.68590
H         40.19433        58.45207         0.17181
H         38.07245        57.20628         0.15582
H         42.39979        14.79913         1.32602
H         42.66501        58.48734         0.05010
H         44.14140        16.06288         2.63462
H         44.81439        57.30339        -0.05856
H         48.74906        18.47405         1.79806
H         46.68570        17.54264         2.82435
H         48.56965        55.16374        -0.15632
H         46.46394        56.36413        -0.19021
H         50.26466        19.18608         0.88262
H         50.19802        54.23071         0.00365
H         52.36162        20.39583         0.53534
H         52.31302        53.02165         0.02821
H         55.87278        22.50640        -1.17944
H         53.83311        21.26478        -0.62020
H         55.98103        50.76652         0.68350
H         53.88031        51.99162         0.62756
H         57.69726        23.38819        -0.81791
H         57.48382        49.79230         1.22751
H         59.78654        24.58101        -0.45989
H         61.05816        26.85253        -0.47858
H         61.01513        29.27825        -0.42669
H         61.01675        31.16494        -0.16001
H         61.00905        33.58559        -0.11744
H         61.00070        35.46388        -0.02176
H         60.98733        37.88073         0.09288
H         60.96750        39.76894        -0.17066
H         60.98412        42.15520         0.34869
H         60.78626        43.94505         1.64398
H         60.69334        46.39336         1.90964
H         59.52631        48.50740         1.70998
