         420
 CSIRO Nanostructure Databank - Neutral Graphene Oxide Data Set
C         28.02823        27.61761         0.61192
C         28.21835        28.82432         1.48460
C         26.95084        29.61308         1.54883
C         28.10056        31.72200         1.05547
C         26.91951        30.95746         1.35138
C         28.07918        33.15261         0.97649
C         26.88477        33.87421         1.27835
C         28.01074        36.00334         0.92262
C         26.85434        35.24513         1.25491
C         27.97510        37.43832         0.89199
C         26.75169        38.14080         1.05414
C         27.91114        40.27206         0.94675
C         26.71666        39.51589         1.04376
C         27.87328        41.71142         1.03656
C         26.70035        42.45395         0.94457
C         27.88079        44.59938         0.87422
C         26.70549        43.86347         0.83575
C         27.91762        46.00062         0.53861
C         30.40128        27.49637         0.03263
C         29.08574        26.98198         0.00352
C         30.63233        28.84269         0.69605
C         29.37430        29.62092         0.94816
C         30.51530        31.76110         0.47097
C         29.32652        31.01179         0.81842
C         30.48609        33.17731         0.37558
C         29.25120        33.88595         0.63537
C         30.38170        36.07630         0.24499
C         29.21950        35.32182         0.60339
C         30.39375        37.48357         0.33625
C         29.17841        38.17417         0.69484
C         30.39560        40.33333         0.72608
C         29.15476        39.59631         0.79025
C         30.41513        41.71394         0.99327
C         29.14730        42.39914         1.28575
C         30.41648        44.64130         1.06165
C         29.13426        43.94122         1.25268
C         30.35104        46.11690         0.99375
C         29.06271        46.72620         0.61727
C         32.79979        24.67396        -0.71400
C         31.58145        25.37921        -0.54010
C         32.74953        27.53572        -0.79375
C         31.54852        26.77085        -0.40139
C         32.85285        28.98072        -0.46613
C         31.73966        29.64504         0.06947
C         32.90352        31.79378        -0.14945
C         31.72142        31.06254         0.14640
C         32.88687        33.23062        -0.19944
C         31.65538        33.89780         0.01138
C         32.76345        36.11720        -0.67451
C         31.46960        35.31205        -0.47589
C         32.79226        37.61251        -0.49180
C         31.58574        38.26834         0.09174
C         32.87140        40.37328         0.40701
C         31.61114        39.63340         0.38845
C         32.85234        41.78896         0.74636
C         31.63656        42.46739         0.96785
C         32.87057        44.64375         0.95813
C         31.60933        43.92915         1.04250
C         32.89868        46.06266         0.64911
C         31.67607        46.87644         0.73158
C         32.80263        48.63604        -0.58471
C         31.69084        48.17981         0.05366
C         35.43008        23.33544        -1.57508
C         35.30139        24.53666        -0.65605
C         34.01555        25.30951        -0.87616
C         35.32784        27.49409        -1.14242
C         34.02658        26.75313        -1.12262
C         35.32047        29.00578        -1.01448
C         34.05496        29.69676        -0.68315
C         35.35162        31.80300        -0.39588
C         34.10131        31.08713        -0.43268
C         35.34939        33.23765        -0.37563
C         34.10072        33.93090        -0.47076
C         35.38696        36.15639        -0.59125
C         34.08907        35.38522        -0.73918
C         35.38505        37.60664        -0.27530
C         34.12282        38.40979        -0.62528
C         35.33037        40.49714         0.09699
C         34.06480        39.74544         0.09016
C         35.32834        41.87750         0.60269
C         34.09693        42.51711         0.81802
C         35.32912        44.74945         1.13012
C         34.06719        43.93218         0.99958
C         35.31579        45.82953         0.06179
C         34.04686        46.63629         0.11201
C         35.24879        48.36241        -1.15349
C         34.04166        47.89734        -0.55822
C         35.27796        49.46478        -2.05632
C         37.79019        23.16027        -0.84204
C         36.60039        22.69299        -1.65627
C         37.81094        24.67623        -0.79993
C         36.58208        25.35669        -0.77335
C         37.77718        27.49129        -0.70342
C         36.56723        26.76368        -0.83029
C         37.73622        28.92668        -0.48807
C         36.57060        29.65957        -0.57441
C         37.76929        31.75995         0.02408
C         36.56357        31.08107        -0.31260
C         37.76306        33.19794         0.12393
C         36.57996        33.92373        -0.20051
C         37.67017        36.08018         0.54784
C         36.71471        35.40946        -0.42659
C         37.78017        37.54146         0.42140
C         36.58988        38.24814         0.01548
C         37.95648        40.45341         0.22362
C         36.63735        39.73598        -0.03779
C         37.76548        41.81133         0.85298
C         36.58801        42.54397         0.83944
C         37.80605        44.71137         1.05528
C         36.62385        43.98599         1.04638
C         37.77395        46.25679         0.87762
C         36.55001        46.68582         0.09489
C         37.75364        48.34655        -1.27528
C         36.52585        47.78172        -0.75439
C         37.72430        49.37029        -2.23677
C         36.45338        49.93182        -2.59536
C         40.39545        20.63464        -2.10077
C         39.16647        21.23783        -1.68481
C         40.32856        23.32147        -1.14897
C         39.10857        22.55452        -1.27823
C         40.31208        24.69078        -0.93869
C         39.03550        25.39538        -0.82828
C         40.28093        27.60336        -0.81771
C         39.01071        26.79817        -0.71532
C         40.24576        28.84244         0.04521
C         38.92673        29.56924         0.09711
C         40.15269        31.63468         0.70676
C         38.95843        31.02264         0.27225
C         40.05255        33.05494         1.09801
C         38.91696        33.84485         0.62604
C         40.16643        35.98826         1.20285
C         38.88509        35.27313         0.97588
C         40.18073        37.43073         1.13005
C         38.99960        38.18085         0.79254
C         40.24751        40.26462         1.16912
C         39.06752        39.61814         0.83347
C         40.25968        41.72586         1.43666
C         38.97526        42.49704         1.29793
C         40.27652        44.51328         1.48721
C         39.03804        43.96862         1.21541
C         40.28676        46.54043         0.73194
C         39.02549        46.83760         0.21405
C         40.23222        48.23110        -1.40733
C         38.99937        47.77324        -0.84931
C         40.19917        49.23888        -2.42662
C         38.96208        49.81037        -2.84512
C         40.15026        51.19343        -4.46670
C         38.97301        50.79143        -3.87310
C         42.84077        20.72254        -2.35802
C         41.59321        21.28281        -1.91775
C         42.86173        23.36471        -1.24618
C         41.61944        22.53601        -1.07357
C         42.82284        24.76204        -0.92999
C         41.56003        25.44316        -0.81753
C         42.75313        27.57035        -0.40092
C         41.55010        26.82496        -0.61636
C         42.72887        28.95259        -0.00825
C         41.48266        29.61614         0.22113
C         42.64605        31.58701         1.17986
C         41.39752        30.93500         0.70583
C         42.61113        33.04451         1.63961
C         41.31195        33.80642         1.57804
C         42.61235        35.95604         1.82321
C         41.34014        35.26453         1.39045
C         42.66719        37.40701         1.42243
C         41.44173        38.11477         1.27330
C         42.72324        40.22555         1.33080
C         41.48266        39.54259         1.27727
C         42.78473        41.71018         1.57622
C         41.52160        42.45502         1.30253
C         42.74478        44.57779         0.88976
C         41.54569        43.85401         1.26051
C         42.77871        46.11821         0.66468
C         41.51038        46.75657         0.09017
C         42.72002        48.17213        -1.53347
C         41.48625        47.68772        -0.97541
C         42.68293        49.15032        -2.56965
C         41.42467        49.67424        -3.01896
C         42.61546        51.07493        -4.65234
C         41.39466        50.65081        -4.05152
C         44.01139        21.40689        -2.22221
C         45.27923        23.48679        -1.64928
C         44.05781        22.75515        -1.68491
C         45.32318        24.76131        -0.84358
C         44.01785        25.50543        -0.82871
C         45.22959        27.63103        -0.40896
C         44.00376        26.89324        -0.53847
C         45.20396        28.99629        -0.01450
C         43.95546        29.65148         0.24112
C         45.15528        31.62715         1.08344
C         43.94632        30.97066         0.78793
C         45.13870        32.96551         1.82211
C         43.88505        33.80272         1.59167
C         45.12065        35.94575         1.62303
C         43.88963        35.17701         1.57022
C         45.14452        37.33797         1.55519
C         43.90131        38.08381         1.41694
C         45.20039        40.22482         1.25073
C         43.93270        39.51294         1.33488
C         45.19192        41.68119         1.00627
C         43.99322        42.40917         1.02456
C         45.20484        44.49664         0.50565
C         43.96047        43.82868         0.79424
C         45.19893        45.86966         0.09636
C         44.00288        46.56683        -0.11303
C         45.16422        48.22820        -1.57563
C         43.96436        47.68700        -1.02255
C         45.14851        49.14105        -2.65956
C         43.89158        49.61922        -3.16544
C         43.82009        50.57374        -4.22277
C         47.67008        23.71166        -2.10345
C         46.49272        22.98447        -2.16127
C         47.70603        25.05365        -1.60582
C         46.51403        25.63907        -1.12673
C         47.69381        27.74780        -0.64636
C         46.48108        26.99890        -0.72291
C         47.68695        29.07216        -0.11437
C         46.43066        29.70146         0.20769
C         47.67842        31.59043         1.22010
C         46.39538        30.98797         0.80297
C         47.67530        33.08387         1.66855
C         46.39893        33.76230         1.59876
C         47.67661        35.95553         1.94621
C         46.36332        35.19649         1.85728
C         47.62425        37.40205         1.69437
C         46.40776        38.07046         1.55376
C         47.68346        40.18781         0.96022
C         46.38482        39.50752         1.32938
C         47.65938        41.68520         1.16041
C         46.41240        42.39741         0.85435
C         47.71838        44.44830         0.34614
C         46.43924        43.78558         0.60140
C         47.73485        45.79539        -0.11255
C         46.48194        46.53852        -0.14588
C         47.70262        48.24604        -1.65696
C         46.45652        47.85234        -1.00517
C         47.61223        49.15762        -2.73942
C         46.39261        49.59916        -3.20370
C         50.15280        25.26553        -2.04823
C         48.92467        25.81749        -1.59033
C         50.15584        27.84126        -0.89327
C         48.92377        27.13440        -1.04855
C         50.15581        29.14400        -0.30258
C         48.92169        29.75882         0.08478
C         50.15819        31.73255         0.92386
C         48.94731        31.04055         0.71738
C         50.16163        33.11822         1.36873
C         48.94628        33.83203         1.57053
C         50.18437        35.94520         1.75547
C         48.95606        35.23091         1.72230
C         50.19913        37.39374         1.79788
C         48.91210        38.11963         1.83498
C         50.21567        40.26227         1.29047
C         48.92626        39.59803         1.59160
C         50.22511        41.62536         0.95075
C         48.97335        42.40815         1.03534
C         50.18726        44.39968         0.17213
C         48.94906        43.77791         0.50507
C         50.18906        45.73921        -0.33043
C         48.94387        46.42646        -0.50495
C         50.17771        48.27055        -1.57726
C         48.92969        47.68112        -1.21569
C         51.33989        25.93886        -1.88729
C         52.62638        27.88196        -1.00635
C         51.38246        27.21752        -1.26485
C         52.60391        29.19405        -0.48773
C         51.38766        29.82276        -0.09339
C         52.63743        31.75865         0.81169
C         51.40637        31.12350         0.53145
C         52.66337        33.01364         1.65130
C         51.38886        33.81632         1.51349
C         52.67578        35.90424         1.97229
C         51.39822        35.20171         1.73060
C         52.67343        37.42674         1.92942
C         51.38839        38.11781         1.71280
C         52.66442        40.21256         1.20183
C         51.42385        39.53444         1.41538
C         52.66902        41.58579         0.82923
C         51.43932        42.29958         0.69029
C         52.65281        44.35262         0.03818
C         51.42357        43.69006         0.31015
C         52.66095        45.70441        -0.42416
C         51.41890        46.37649        -0.66715
C         51.37241        47.67122        -1.26826
C         55.06948        27.69445        -0.71604
C         53.87662        27.15616        -1.08223
C         55.19789        29.12764        -0.45005
C         53.85856        29.92949        -0.33630
C         55.11531        31.74226         0.79405
C         53.87005        31.16814         0.44400
C         55.14554        33.13373         1.20733
C         53.93195        33.81866         1.45704
C         55.16091        35.93754         1.65325
C         53.94556        35.20386         1.68521
C         55.15393        37.39997         1.64873
C         53.93932        38.11995         1.62301
C         55.15031        40.20310         1.13424
C         53.92244        39.50940         1.32613
C         55.14765        41.60698         0.77988
C         53.90906        42.28015         0.61179
C         55.12075        44.33264        -0.01122
C         53.89279        43.65314         0.21635
C         55.10312        45.69557        -0.43370
C         53.91615        46.34967        -0.64642
C         56.33390        29.66707         0.28846
C         56.30823        30.94906         0.76543
C         56.35836        33.85537         1.24999
C         56.36474        35.22099         1.47250
C         56.36380        38.12628         1.51932
C         56.36108        39.48666         1.28922
C         56.35656        42.32212         0.56806
C         56.34591        43.64623         0.18314
O         39.45158        42.04337         2.64621
O         48.31384        42.20892         2.35126
O         40.32867        33.33350         2.52910
O         39.43718        28.77663         1.24571
O         48.81048        39.11460         2.94579
O         35.44339        28.35946        -2.32381
O         52.70702        36.68636         3.20689
O         37.75388        35.57943         1.90440
O         29.11612        43.19592         2.51386
O         42.59874        31.95876         2.60209
O         33.12731        27.21219        -2.17372
O         40.33158        45.83726         1.95129
O         34.84639        35.81889        -1.93110
O         47.72122        31.96049         2.63678
O         46.53636        47.86665         0.44722
O         36.03193        40.32934        -1.22231
O         46.99568        35.53789         3.17360
O         32.52518        37.00280        -1.81235
O         54.69930        29.97578        -1.52769
O         31.04935        46.84484         2.05690
O         31.14740        28.45410         2.02725
H         30.35003        28.18289         2.55684
O         37.67994        46.84871         2.20098
H         38.49974        46.59656         2.68157
O         40.34237        28.12028        -2.19276
H         40.34586        27.35274        -2.80292
O         37.57811        22.68474         0.53762
H         38.31258        23.03775         1.08431
O         45.52531        24.30962         0.56189
H         46.34671        23.77286         0.57366
O         45.13480        32.65887         3.24824
H         46.00422        32.23765         3.45468
O         37.41233        35.54650        -1.70476
H         36.72553        35.45146        -2.40543
O         42.93157        41.81100         3.05026
H         43.02196        42.76183         3.27572
O         28.55831        28.35656         2.86802
H         28.43791        29.12371         3.46812
O         35.22081        24.05456         0.71241
H         35.99618        23.45259         0.85994
O         30.90733        35.09760        -1.81527
H         31.10359        35.91572        -2.33080
O         52.69299        32.55783         3.04947
H         52.65792        33.35474         3.62102
O         47.85736        39.96453        -0.48046
H         47.03709        40.25412        -0.93337
O         38.51447        40.79092        -1.09674
H         37.73556        40.92822        -1.69032
O         34.25056        38.74359        -2.02927
H         34.12481        37.89920        -2.52297
O         35.27657        45.42553         2.40942
H         35.41941        44.76540         3.11800
O         42.52205        35.97639         3.29223
H         41.69049        36.43413         3.53924
O         41.67249        22.04102         0.32444
H         40.95301        21.38036         0.41975
O         35.33761        45.13936        -1.23073
H         35.32875        45.82246        -1.93454
O         42.96103        46.68278         2.00325
H         42.13688        46.48776         2.50617
H         27.00419        27.25696         0.43137
H         26.02291        29.07049         1.78306
H         25.95052        31.46949         1.42685
H         25.96979        33.33556         1.55491
H         25.91663        35.75233         1.51482
H         25.80852        37.59225         1.16867
H         25.75238        40.02629         1.16383
H         25.73657        41.94064         0.82523
H         25.75836        44.37900         0.61998
H         26.97270        46.49222         0.26355
H         28.89040        26.06192        -0.56806
H         29.03154        47.81126         0.44822
H         32.78487        23.58177        -0.58598
H         30.67229        24.79784        -0.32911
H         32.77291        49.61867        -1.07656
H         30.78738        48.80413         0.08824
H         34.55587        22.99403        -2.14967
H         34.33145        49.93074        -2.36501
H         36.70713        21.81578        -2.31137
H         36.40670        50.75996        -3.31482
H         40.36764        19.65171        -2.59350
H         38.24678        20.64173        -1.76097
H         40.13640        51.94826        -5.26602
H         38.02993        51.23740        -4.21546
H         42.83175        19.72717        -2.82703
H         42.58179        51.81993        -5.46025
H         44.94202        20.93447        -2.56314
H         44.74027        50.93222        -4.70198
H         48.58173        23.25381        -2.50725
H         46.52132        21.99569        -2.63947
H         48.52876        49.50668        -3.23499
H         46.38592        50.30514        -4.04373
H         50.16984        24.27702        -2.52487
H         50.18386        49.25006        -2.07470
H         52.26545        25.47372        -2.25057
H         52.30417        48.18701        -1.53406
H         55.95884        27.05568        -0.61016
H         53.84054        26.08245        -1.31166
H         56.05890        46.21403        -0.59694
H         53.94161        47.39626        -0.97697
H         57.20638        29.02159         0.46661
H         57.20926        31.34557         1.25473
H         57.31156        33.34083         1.06966
H         57.32947        35.74375         1.47048
H         57.33064        37.61303         1.59577
H         57.32559        40.00185         1.19637
H         57.32439        41.82233         0.70374
H         57.29210        44.18099         0.01715
