         732
 CSIRO Nanostructure Databank - Neutral Graphene Oxide Data Set
C         22.53465        24.91916        -0.99865
C         21.59372        25.68758        -1.70569
C         22.98932        27.66385        -1.35561
C         21.80077        27.04981        -1.82941
C         23.04021        29.08764        -1.15148
C         21.87750        29.94785        -1.31977
C         22.85074        31.72551         0.09495
C         21.76993        31.17551        -0.74766
C         22.80358        33.18408         0.63899
C         21.49515        33.94460         0.68414
C         22.89850        36.01150         1.18637
C         21.58194        35.25352         0.96815
C         22.83599        37.44548         0.55950
C         21.65137        38.20147         1.07564
C         22.98200        40.18724         1.53816
C         21.74364        39.46210         1.55505
C         22.97396        41.62663         1.99316
C         21.72446        42.38640         1.61992
C         22.94897        44.50613         1.56782
C         21.72534        43.73377         1.51210
C         22.94407        45.93020         1.54754
C         21.73739        46.67237         1.69508
C         22.94039        48.75637         1.40981
C         21.74554        48.05246         1.64809
C         25.72600        22.93845        -0.59691
C         25.68663        24.32071        -0.33151
C         23.72467        25.50753        -0.59119
C         25.38399        27.43325        -0.59951
C         24.08190        26.85681        -0.88102
C         25.42275        28.85594        -0.48880
C         24.21739        29.63014        -0.64613
C         25.47183        31.68404         0.02794
C         24.17357        30.99093        -0.07509
C         25.61584        33.02281        -0.28598
C         23.76796        34.12116        -0.04566
C         25.33694        36.05542         0.03118
C         24.05137        35.33366         0.46050
C         25.35267        37.46691         0.59285
C         24.16212        38.14562         0.79874
C         25.43181        40.24702         1.22207
C         24.17011        39.53812         1.19439
C         25.42658        41.68364         1.40811
C         24.21870        42.37618         1.59188
C         25.41488        44.52175         1.42549
C         24.18678        43.79720         1.53860
C         25.40448        45.94346         1.28983
C         24.17748        46.64805         1.36416
C         25.38502        48.78008         0.90668
C         24.15319        48.08084         1.25139
C         25.42833        50.19490         0.75209
C         28.01883        23.17158        -1.32678
C         26.86144        22.37914        -1.14688
C         27.98166        24.56249        -0.99958
C         26.74734        25.19336        -0.59784
C         27.85301        27.35340        -0.33176
C         26.65286        26.66939        -0.46063
C         27.92202        28.85607        -0.48992
C         26.64076        29.54184        -0.14066
C         27.87784        31.66524         0.37899
C         26.67037        30.91973         0.13809
C         27.85733        33.06015         0.53117
C         26.70280        33.83114         0.17541
C         27.83074        35.96585         0.64312
C         26.63161        35.25215         0.33111
C         27.81917        37.40401         0.68017
C         26.62242        38.13555         0.74324
C         27.89343        40.27853         1.06916
C         26.63304        39.56274         0.99636
C         27.91365        41.68415         1.30622
C         26.66185        42.41372         1.39195
C         27.87216        44.62337         1.76670
C         26.64335        43.81166         1.44949
C         27.87717        45.96543         1.04324
C         26.63434        46.64437         0.97762
C         27.74096        48.72325         0.13568
C         26.56184        48.03853         0.68135
C         27.78744        50.19039         0.10258
C         26.58795        50.87230         0.40789
C         30.51679        20.60817        -2.47546
C         29.31164        21.21371        -2.17830
C         30.48188        23.27667        -1.59967
C         29.26556        22.55411        -1.72275
C         30.44592        24.65607        -1.19789
C         29.21113        25.28511        -0.95614
C         30.43622        27.42683        -0.32362
C         29.15989        26.64722        -0.37926
C         30.39013        28.89575        -0.09339
C         29.15561        29.55060         0.04476
C         30.32503        31.60982         0.67670
C         29.12400        30.91761         0.41100
C         30.30386        33.02154         1.16313
C         28.97860        33.77989         1.23053
C         30.29559        35.93947         1.03591
C         29.07636        35.25939         0.87495
C         30.28049        37.42888         1.27821
C         29.14066        38.12419         0.54124
C         30.34394        40.26342         1.01121
C         29.11218        39.58525         0.92680
C         30.36347        41.67811         1.18298
C         29.14523        42.37284         1.37699
C         30.43454        44.57412         1.29521
C         29.17322        43.83324         1.64493
C         30.35726        45.98743         0.86712
C         29.09992        46.61127         0.72348
C         30.31259        48.75070         0.09167
C         29.07186        47.96181         0.12687
C         30.27316        50.15409        -0.13888
C         29.01431        50.85554        -0.18623
C         30.21352        52.94689        -0.59447
C         29.03604        52.25629        -0.45896
C         33.12083        19.18972        -2.81846
C         33.01547        20.64108        -2.64872
C         31.73858        21.29607        -2.30910
C         32.96562        23.29913        -1.45615
C         31.73199        22.63392        -1.85188
C         32.91163        24.69193        -1.03690
C         31.69960        25.36039        -1.03034
C         32.95173        27.56621        -0.75724
C         31.63027        26.86656        -1.09756
C         32.90889        28.97607        -0.22279
C         31.59129        29.60941         0.06217
C         32.82701        31.69456         0.52005
C         31.54541        30.95897         0.45455
C         32.85347        33.14702         0.78803
C         31.57421        33.80501         1.16656
C         32.79962        35.96040         1.10559
C         31.55741        35.28190         1.12966
C         32.81685        37.40196         0.98305
C         31.59972        38.11843         0.99474
C         32.83110        40.22030         0.79936
C         31.59616        39.52320         0.91659
C         32.80765        41.66607         0.76134
C         31.61414        42.38894         1.00406
C         32.78077        44.50769         0.50880
C         31.62616        43.80565         0.90323
C         32.78344        45.94038         0.34958
C         31.55846        46.65075         0.47463
C         32.76816        48.77010         0.04687
C         31.53732        48.06444         0.20481
C         32.74819        50.18559        -0.09503
C         31.50341        50.88393        -0.20657
C         32.68448        53.05810        -0.36994
C         31.47862        52.31045        -0.40618
C         32.75204        54.46193        -0.56238
C         35.56448        19.23378        -2.50828
C         34.33092        18.56930        -2.85367
C         35.52502        20.54199        -2.01943
C         34.31216        21.35582        -2.18384
C         35.33011        23.12961        -0.64018
C         34.17528        22.62373        -1.46849
C         35.36905        24.63937        -0.58117
C         34.17131        25.37748        -0.71630
C         35.36533        27.44555        -0.09195
C         34.17847        26.78097        -0.50110
C         35.34016        28.84532         0.37452
C         34.10804        29.52039         0.42565
C         35.22477        31.63370         1.40814
C         34.01037        30.89516         0.93653
C         35.29159        33.12016         1.34830
C         34.10308        33.83871         1.19335
C         35.30843        35.96534         1.22525
C         34.06563        35.26126         1.19261
C         35.32802        37.38015         0.96142
C         34.05873        38.09535         0.83838
C         35.36231        40.25755         0.66994
C         34.04927        39.49654         0.71926
C         35.14202        41.60521        -0.00035
C         33.98180        42.36519         0.35473
C         35.10210        44.48705        -0.30635
C         33.95845        43.78099         0.18910
C         35.22215        45.92887        -0.19349
C         34.00605        46.63364         0.05851
C         35.24704        48.76346        -0.00580
C         34.00559        48.06267         0.02641
C         35.22383        50.21078         0.00829
C         33.99495        50.88737        -0.06786
C         35.24172        53.12715        -0.17218
C         33.93396        52.36035        -0.02720
C         35.22169        54.53866        -0.62400
C         33.94200        55.16539        -0.66877
C         38.14292        16.62180        -3.36494
C         36.92707        17.28149        -3.27537
C         37.99672        19.03903        -1.98299
C         36.82878        18.50360        -2.57886
C         37.89532        20.33801        -1.28537
C         36.67901        21.15689        -1.42126
C         37.88382        23.17903        -0.66692
C         36.65881        22.47349        -0.96170
C         37.85689        24.57106        -0.33309
C         36.58877        25.29684        -0.28632
C         37.83367        27.41430         0.14872
C         36.56480        26.69626        -0.04650
C         37.79770        28.82863         0.67450
C         36.50644        29.47830         0.89806
C         37.77604        31.63132         1.66424
C         36.48763        30.83930         1.47732
C         37.77481        33.12215         1.59058
C         36.53895        33.81771         1.47258
C         37.77764        35.96872         1.47059
C         36.53792        35.25209         1.37919
C         37.77410        37.39278         1.21618
C         36.55008        38.04770         0.83553
C         37.87254        40.16045         0.29620
C         36.55235        39.39853         0.12496
C         38.07200        41.37096        -0.30900
C         36.05585        42.28246        -0.78674
C         38.00995        44.62289        -0.56128
C         36.04230        43.67762        -0.93641
C         37.77524        45.90244        -0.08195
C         36.48502        46.62232        -0.18205
C         37.68830        48.80381         0.46757
C         36.46610        48.03147         0.00425
C         37.73782        50.24147         0.01904
C         36.47632        50.95980        -0.04186
C         37.71341        53.10488        -0.33328
C         36.46495        52.32684        -0.27726
C         37.68808        54.38887        -1.13758
C         36.41917        55.19434        -0.95127
C         37.67441        57.19016        -1.62085
C         36.48621        56.57265        -1.31825
C         40.55883        14.93005        -2.74299
C         40.59399        16.40899        -3.01812
C         39.29929        17.13826        -2.75461
C         40.46872        18.91114        -1.35426
C         39.23751        18.36056        -2.06364
C         40.46589        20.42415        -1.25645
C         39.18589        21.07166        -0.95147
C         40.36613        23.23712        -0.71354
C         39.13723        22.52516        -0.79094
C         40.32188        24.62530        -0.39961
C         39.09217        25.25128        -0.15565
C         40.34331        27.40563         0.37966
C         39.06401        26.61193         0.49857
C         40.32950        28.78820         0.71125
C         39.07808        29.42765         1.15803
C         40.22073        31.73236         0.93459
C         39.07147        30.89618         1.45780
C         40.21870        33.04108         1.69260
C         39.00643        33.82427         1.75289
C         40.18963        36.09843         1.91142
C         38.99797        35.28994         1.78106
C         40.20670        37.50151         1.61407
C         38.96972        38.14065         1.33511
C         40.22238        40.40512         1.26164
C         38.93081        39.61227         1.16102
C         40.30378        41.67470         0.51182
C         39.18799        42.28869        -0.07991
C         40.30625        44.47298         0.16331
C         39.17030        43.76269        -0.23303
C         40.24979        45.89254         0.55581
C         38.93130        46.62358         0.52076
C         40.20703        48.74700         0.17437
C         39.00056        48.08464         0.32107
C         40.22453        50.16724        -0.14000
C         38.95673        50.88225        -0.12019
C         40.28206        53.02912        -0.57587
C         38.99943        52.35580        -0.18694
C         40.25215        54.46377        -0.98158
C         38.97127        55.19627        -1.08924
C         40.19291        57.22868        -1.82105
C         38.95199        56.51867        -1.49884
C         40.22761        58.54386        -2.18413
C         42.99126        14.92638        -2.71475
C         41.74700        14.24689        -2.70767
C         43.05041        16.33113        -2.50236
C         41.81541        17.05232        -2.42158
C         42.96925        19.04595        -1.65722
C         41.77543        18.35142        -1.88594
C         42.92622        20.36676        -0.93830
C         41.63429        21.13980        -1.09661
C         42.86084        23.25015        -0.52627
C         41.62561        22.54846        -0.81491
C         42.85851        24.63516        -0.22187
C         41.60234        25.42376        -0.50734
C         42.78529        27.39547         0.71833
C         41.54350        26.74458         0.19508
C         42.76318        28.88375         0.56525
C         41.54708        29.54486         0.72661
C         42.70794        31.61293         1.33767
C         41.52734        30.97584         0.99518
C         42.70240        32.94458         1.83630
C         41.44278        33.45159         2.20819
C         42.68266        36.12549         2.02265
C         41.43931        35.57660         2.34000
C         42.67840        37.52367         1.77442
C         41.46309        38.20953         1.66485
C         42.81013        40.31400         1.27218
C         41.50480        39.72276         1.78155
C         42.82959        41.66566         0.86069
C         41.60546        42.29354         0.36254
C         42.81938        44.52839         0.60403
C         41.61122        43.82719         0.16786
C         42.74171        45.97320         0.77806
C         41.49209        46.68165         0.47655
C         42.73503        48.76992         0.02704
C         41.48830        48.04825         0.26378
C         42.68341        50.11294        -0.44354
C         41.41461        50.79248        -0.51232
C         42.65217        52.86830        -1.36094
C         41.34232        52.14142        -1.19584
C         42.62642        54.25850        -1.70992
C         41.44868        55.01520        -1.63550
C         42.54211        56.96426        -2.74693
C         41.53339        56.51739        -1.68685
C         42.58691        58.47407        -2.82070
C         41.46811        59.18674        -2.57109
C         45.55350        16.36328        -2.26756
C         44.27511        17.02878        -2.26001
C         45.45132        19.13675        -1.77244
C         44.24081        18.42838        -1.92954
C         45.44394        20.57990        -1.50784
C         44.12566        21.23536        -1.21627
C         45.33335        23.23392        -0.35013
C         44.11395        22.58257        -0.62465
C         45.31013        24.59113         0.07375
C         44.06898        25.30648         0.07794
C         45.26922        27.39088         0.64333
C         44.08042        26.71690         0.36904
C         45.27417        28.82383         0.84554
C         44.05357        29.66138         0.52509
C         45.23034        31.65815         1.53344
C         43.97191        30.81696         1.52328
C         45.22388        33.05592         1.67851
C         43.92381        33.79007         1.70854
C         45.23711        36.02409         1.83251
C         43.92175        35.30475         1.79936
C         45.22937        37.40301         1.84043
C         43.97916        38.24512         2.06787
C         45.25599        40.28783         1.20364
C         44.02015        39.62639         1.44526
C         45.26382        41.69746         0.94297
C         44.03486        42.39770         0.80647
C         45.27936        44.58174         0.77739
C         44.02595        43.84534         0.72805
C         45.28116        45.96191         0.60466
C         44.05470        46.75201         0.69049
C         45.18659        48.72891        -0.32467
C         43.99939        48.11784         0.13429
C         45.13277        50.08015        -0.81477
C         43.88691        50.78181        -0.83274
C         45.10065        52.82771        -1.56669
C         43.86590        52.16025        -1.26749
C         45.09921        54.20800        -1.94800
C         43.87310        54.92769        -2.05983
C         45.09619        56.88952        -2.80828
C         43.87509        56.27164        -2.49837
C         46.72538        17.04083        -2.17361
C         47.96867        19.19206        -1.58447
C         46.75584        18.54381        -2.22855
C         47.89744        20.51491        -1.04172
C         46.67130        21.24175        -1.01893
C         47.77992        23.13571         0.10260
C         46.60021        22.53055        -0.45537
C         47.69937        24.46833         0.65095
C         46.51988        25.22275         0.51461
C         47.64364        27.29693         1.25686
C         46.50725        26.64448         0.80759
C         47.60993        28.72208         1.58819
C         46.40357        29.49238         1.27004
C         47.68306        31.62603         1.50633
C         46.44378        30.93431         1.46078
C         47.67622        33.05611         1.49687
C         46.44693        33.78375         1.61168
C         47.69336        35.87955         1.43269
C         46.46748        35.23526         1.64319
C         47.76042        37.34953         1.52893
C         46.49622        38.15637         1.76701
C         47.71028        40.21423         1.04124
C         46.50252        39.57551         1.32331
C         47.73916        41.64355         0.54728
C         46.48450        42.42358         0.83342
C         47.78185        44.50075         0.59994
C         46.51969        43.82104         0.77491
C         47.81501        45.96971         0.47138
C         46.52426        46.74074         0.47542
C         47.64269        48.61493        -0.69763
C         46.47494        48.05824        -0.20037
C         47.50342        49.83382        -1.59479
C         46.32859        50.71874        -1.23863
C         47.56105        52.79753        -1.81262
C         46.33014        52.09750        -1.55673
C         47.57608        54.16424        -2.04383
C         46.33207        54.87915        -2.21237
C         46.30354        56.21943        -2.64292
C         50.36676        19.16638        -1.15463
C         49.19730        18.54963        -1.62986
C         50.34153        20.44583        -0.60502
C         49.08088        21.13163        -0.51424
C         50.20900        22.96291         0.74400
C         48.99690        22.41448         0.08790
C         50.16892        24.34371         1.34728
C         48.85761        25.06609         1.34402
C         50.16736        27.28315         1.63117
C         48.86618        26.56007         1.61271
C         50.18666        28.68527         1.57734
C         48.93414        29.45872         1.72788
C         50.14231        31.57022         1.25859
C         48.93377        30.91213         1.47651
C         50.14180        33.01045         1.13773
C         48.92099        33.73716         1.30941
C         50.15151        35.81558         0.91324
C         48.92423        35.15728         1.20282
C         50.14420        37.25266         0.58864
C         48.88860        38.04132         0.85271
C         50.16627        40.16394         0.65325
C         48.94507        39.51157         0.92404
C         50.23083        41.60432         0.64001
C         48.98843        42.36885         1.02514
C         50.21261        44.47021         0.23291
C         48.98707        43.80866         0.55518
C         50.20360        45.86592        -0.13813
C         49.00048        46.60040        -0.11856
C         50.13937        48.53868        -1.04291
C         48.92868        47.92887        -0.61749
C         50.12970        49.90574        -1.59161
C         48.82106        50.59190        -1.80163
C         50.06364        52.74028        -2.31968
C         48.87449        52.09110        -1.56373
C         50.03367        54.23113        -2.06671
C         48.85332        54.87640        -2.02183
C         52.83579        20.48999        -0.32162
C         51.57576        21.10381        -0.17052
C         52.69999        23.05113         0.85604
C         51.52453        22.38075         0.42789
C         52.63281        24.40858         1.36744
C         51.43206        25.10675         1.48861
C         52.60981        27.29153         1.69087
C         51.39926        26.55390         1.64006
C         52.63811        28.70257         1.51638
C         51.40743        29.40794         1.44642
C         52.60945        31.49878         1.00932
C         51.40041        30.83372         1.24442
C         52.56815        32.90091         0.46792
C         51.34987        33.69198         0.87846
C         52.61454        35.79784         0.44883
C         51.36337        35.10191         0.76221
C         52.64646        37.24206         0.36331
C         51.41135        37.99326         0.51227
C         52.64592        40.12091         0.50339
C         51.37472        39.38075         0.49852
C         52.61445        41.53939         0.05092
C         51.38773        42.30593         0.33203
C         52.66209        44.41348        -0.12568
C         51.42051        43.73377         0.15580
C         52.66005        45.82364        -0.37810
C         51.42111        46.52523        -0.46756
C         52.63079        48.60265        -1.05332
C         51.38984        47.89566        -0.86003
C         52.61981        50.01133        -1.36118
C         51.38814        50.69719        -1.56879
C         52.59938        52.73504        -2.05346
C         51.37069        52.05468        -1.92796
C         53.98891        21.11616         0.12684
C         55.20129        23.05477         1.11022
C         53.95793        22.39503         0.71729
C         55.18583        24.40776         1.52979
C         53.88543        25.06507         1.78345
C         55.14329        27.35249         1.98740
C         53.85726        26.58194         1.99717
C         55.12937        28.75987         1.53620
C         53.88856        29.42630         1.40144
C         55.10003        31.53903         0.93015
C         53.86326        30.82447         1.09699
C         55.08270        32.96816         0.68251
C         53.86240        33.65672         0.61528
C         55.06406        35.71762        -0.04118
C         53.81741        35.06734         0.40192
C         55.05106        37.21909        -0.31909
C         53.85198        37.92361         0.13159
C         55.18005        40.11160         0.02302
C         53.93505        39.37084         0.34687
C         55.18545        41.53595         0.03316
C         53.90942        42.25660        -0.14384
C         55.12882        44.41614        -0.23188
C         53.89903        43.72652        -0.13823
C         55.12522        45.82806        -0.44683
C         53.88212        46.51980        -0.58145
C         55.10883        48.62023        -1.04732
C         53.86168        47.92265        -0.88670
C         55.10767        50.00845        -1.35101
C         53.85014        50.71489        -1.50152
C         53.80444        52.08717        -1.83744
C         57.62965        23.04710         1.28960
C         56.44126        22.38354         1.03265
C         57.62985        24.42610         1.57418
C         56.39946        25.10851         1.70697
C         57.65536        27.30265         1.48980
C         56.43665        26.57844         1.92499
C         57.60483        28.72506         1.30705
C         56.36033        29.43895         1.31485
C         57.57928        31.57258         0.91085
C         56.33645        30.85419         1.04186
C         57.57813        32.97705         0.69394
C         56.33797        33.68789         0.55443
C         57.57823        35.80840         0.14617
C         56.35114        35.05105         0.20612
C         57.59768        37.20745        -0.06008
C         56.37418        37.95981        -0.54620
C         57.60643        40.11324        -0.11056
C         56.37176        39.40947        -0.11836
C         57.61897        41.53217         0.01858
C         56.38452        42.25510         0.02728
C         57.58098        44.42412        -0.05426
C         56.37962        43.71401        -0.08421
C         57.59738        45.83275        -0.34987
C         56.36095        46.52086        -0.58094
C         57.57878        48.59953        -1.11833
C         56.35026        47.91859        -0.90502
C         57.54674        49.98145        -1.41935
C         56.35093        50.66665        -1.51905
C         60.08676        24.56487         1.99005
C         58.88338        25.17118         1.66729
C         60.13610        27.24089         0.99329
C         58.84655        26.59002         1.41019
C         60.07351        28.74525         1.01896
C         58.83818        29.43646         1.09342
C         60.05415        31.56800         0.82445
C         58.82184        30.86245         0.96043
C         60.04912        33.00394         0.69362
C         58.81428        33.69840         0.58402
C         60.05014        35.82054         0.30670
C         58.81774        35.11191         0.36338
C         60.05648        37.24460         0.10528
C         58.82319        37.93811        -0.03951
C         60.06195        40.09551        -0.12199
C         58.83848        39.38055        -0.12864
C         60.06071        41.53992        -0.05135
C         58.85806        42.23577         0.06634
C         60.12774        44.44436         0.26686
C         58.81021        43.69728         0.47814
C         60.11558        45.88392        -0.22450
C         58.82205        46.53594        -0.51671
C         60.05023        48.46014        -1.40909
C         58.83247        47.87433        -1.00671
C         61.27757        25.35329         2.13834
C         61.31165        26.64957         1.73849
C         61.26434        29.45846         0.83635
C         61.26360        30.84346         0.76722
C         61.26213        33.73818         0.65418
C         61.26361        35.10161         0.47770
C         61.27169        37.98295         0.03153
C         61.27821        39.35120        -0.09371
C         61.30990        42.28710        -0.04251
C         61.34769        43.63030         0.08892
C         61.32624        46.49881        -0.77575
C         61.26765        47.74676        -1.34081
O         50.07390        23.15687         2.20473
O         60.28585        45.52006         1.24436
O         47.35431        46.68748         1.69011
O         41.81211        42.91223        -0.95088
O         48.59939        25.59746         2.68733
O         53.13573        41.71356        -1.30772
O         32.97590        32.64034        -0.59968
O         54.84973        36.26013        -1.41089
O         43.37761        46.53605         1.97261
O         30.00364        26.70685         0.86896
O         24.51742        24.76591         0.28617
O         23.33881        30.85417         1.16741
O         39.28301        29.94083         2.52513
O         31.05297        33.20917         2.42299
O         38.41651        20.32382         0.09643
O         43.78950        34.63070         0.47450
O         24.58917        33.58894        -1.05374
O         37.18257        41.68253        -1.35651
O         53.76351        25.66501         3.11809
O         37.08072        31.05578         2.80932
O         44.64500        21.27386        -2.57888
O         34.25204        31.09734         2.37917
O         38.39093        53.06027         0.95296
O         39.45204        46.12621         1.79217
O         37.15504        44.19938        -1.60317
O         41.43703        34.46037         3.17123
O         47.45600        37.87911         2.85190
O         33.84041        21.41029        -3.57308
O         49.51320        50.06347        -2.97593
O         53.45434        39.83323         1.68931
O         38.01857        28.50689        -0.78172
O         55.93162        27.10343         3.19979
O         33.16483        28.70005        -1.66894
O         40.69725        54.00221         0.40874
O         49.17340        37.54743        -0.49862
O         34.60377        52.94245         1.14430
O         39.21767        40.43280         2.34952
O         48.16907        29.05353         2.91071
O         30.09367        44.25340         2.71412
O         28.26292        48.07892        -1.08604
O         25.26827        36.22175        -1.42576
H         25.16639        35.31549        -1.80329
O         56.55963        38.04652        -1.99595
H         56.15317        37.23159        -2.37594
O         23.12640        36.13129         2.59394
H         23.22197        35.21670         2.94280
O         35.72616        40.56472         2.04431
H         34.98401        41.05374         2.45810
O         37.62038        53.89305        -2.53030
H         37.60022        54.67579        -3.12190
O         22.65077        37.27441        -0.87214
H         23.51912        37.00266        -1.26297
O         38.91965        26.34604         1.93136
H         39.77536        26.00837         2.27254
O         43.94518        38.48037         3.51027
H         43.16364        39.06172         3.69023
O         31.33491        27.14022        -2.49515
H         31.85746        27.93975        -2.74704
O         42.04896        56.47817        -4.02783
H         42.68321        56.75415        -4.72157
O         29.47728        38.06270        -0.87849
H         28.72410        38.43150        -1.38582
O         27.70748        44.97303         3.17766
H         28.61751        45.00191         3.56057
O         49.14107        52.21075        -0.13608
H         49.10523        53.16289         0.09715
O         22.98384        41.57365         3.46779
H         23.06583        42.49629         3.79075
O         35.03280        22.68992         0.73941
H         35.79462        22.94727         1.30174
O         43.85642        30.16930         2.82646
H         43.76254        30.86287         3.51305
O         28.06042        29.03631        -1.96350
H         27.25475        28.66069        -2.38021
O         28.56087        33.78596         2.63230
H         29.39085        33.76511         3.16637
O         42.69847        27.22224         2.20704
H         43.20989        27.95877         2.61794
O         52.42033        32.71995        -0.99736
H         52.45932        33.61189        -1.40609
O         60.35126        26.88186        -0.42681
H         60.41130        25.90315        -0.46472
O         40.41571        18.45086         0.04194
H         39.61888        18.89026         0.43608
O         39.87928        31.98761        -0.46202
H         40.63587        32.45052        -0.87982
O         48.93048        42.40328         2.47713
H         49.69017        42.92687         2.80638
O         36.32259        39.10053        -1.26540
H         36.54616        39.90846        -1.78305
O         44.20621        30.22656        -0.80291
H         44.13677        29.50070        -1.45730
O         40.83616        51.87610        -2.55043
H         41.50970        51.34366        -3.02407
O         40.78569        16.52900        -4.48465
H         41.59019        16.01313        -4.70893
O         42.99160        20.03521         0.48624
H         42.21793        19.45101         0.67501
O         37.48657        48.88594         1.92907
H         38.22488        49.41063         2.30655
O         41.71208        25.77727        -1.94564
H         41.75354        24.93578        -2.44913
O         46.85919        18.90851        -3.66096
H         46.01003        18.66564        -4.08823
O         49.89342        52.58234        -3.74562
H         49.88652        51.61179        -3.92813
O         47.83598        41.57010        -0.90737
H         47.07978        41.04329        -1.24044
O         30.01547        37.59594         2.70057
H         30.69798        37.10077         3.19998
O         58.60472        43.64839         1.92630
H         58.98446        44.48498         2.28404
O         23.26086        33.16284         2.02466
H         23.45059        32.21500         2.24798
O         42.08227        56.90486        -0.39273
H         41.56866        56.44242         0.30427
O         41.56988        39.99702         3.22077
H         40.63355        40.04791         3.53467
O         47.11817        49.27706        -2.89424
H         47.95717        49.14670        -3.39889
H         22.32730        23.87435        -0.73531
H         20.66446        25.22939        -2.06983
H         21.00997        27.67131        -2.26874
H         21.03697        29.58228        -1.92645
H         20.88458        31.79724        -0.94789
H         20.52203        33.43791         0.59535
H         20.64921        35.81862         1.11013
H         20.66569        37.71811         1.03574
H         20.84014        39.95420         1.94012
H         20.76831        41.84971         1.54928
H         20.77607        44.25450         1.32146
H         20.78881        46.14815         1.87123
H         22.89684        49.85139         1.34240
H         20.80846        48.61119         1.77876
H         24.84423        22.32606        -0.36948
H         24.52767        50.78871         0.95647
H         26.87641        21.30463        -1.36749
H         26.56182        51.97032         0.38015
H         30.51428        19.57810        -2.85608
H         28.38594        20.64396        -2.33001
H         30.17338        54.02292        -0.80878
H         28.08768        52.79749        -0.57782
H         32.20657        18.58813        -2.91762
H         31.81900        55.02833        -0.68989
H         34.35477        17.48558        -3.03275
H         33.88221        56.24338        -0.87286
H         38.21280        15.68983        -3.94257
H         36.05148        16.85813        -3.78429
H         37.65343        58.24998        -1.90585
H         35.56426        57.17092        -1.33830
H         39.59949        14.39385        -2.73205
H         39.31649        59.15820        -2.20308
H         43.91335        14.33134        -2.73594
H         41.74857        13.14833        -2.65003
H         43.49195        58.98840        -3.17536
H         41.46650        60.27977        -2.69521
H         45.57876        15.26575        -2.32489
H         45.11766        57.92534        -3.17342
H         47.66877        16.47776        -2.18383
H         47.23915        56.74158        -2.88313
H         51.31035        18.61222        -1.23901
H         49.28562        17.54796        -2.07059
H         50.96920        54.80717        -2.03127
H         48.83722        55.97051        -1.91240
H         52.92470        19.49709        -0.78055
H         52.61555        53.79078        -2.35532
H         54.94334        20.59118        -0.00523
H         54.73336        52.65902        -1.96055
H         58.58090        22.50330         1.21020
H         56.48414        21.32017         0.76572
H         58.48280        50.53780        -1.55973
H         56.38215        51.74135        -1.74032
H         60.12237        23.49702         2.24445
H         60.06513        49.47437        -1.82727
H         62.16228        24.88915         2.59788
H         62.23642        27.23371         1.84601
H         62.21544        28.91995         0.73011
H         62.21995        31.36145         0.62435
H         62.22441        33.22596         0.77838
H         62.22630        35.62766         0.46519
H         62.23606        37.46149         0.08299
H         62.24605        39.86733        -0.13100
H         62.25933        41.74716        -0.15309
H         62.31806        44.14528         0.10686
H         62.29191        45.98923        -0.66505
H         62.18425        48.21810        -1.72251
