         196
 CSIRO Nanostructure Databank - Neutral Graphene Oxide Data Set
C        -11.12904         0.68422         0.18085
C         -9.89952         1.43790         0.09514
C         -8.67693         0.71667        -0.09937
C         -7.43952         1.44346        -0.12772
C         -6.21016         0.76484        -0.39229
C         -4.96088         1.44496        -0.40581
C         -3.71590         0.72279        -0.53423
C         -2.47189         1.43092        -0.45614
C         -1.24975         0.71321        -0.46884
C          0.04442         1.46640        -0.62736
C          1.25278         0.69894        -0.16665
C          2.43553         1.41326         0.16026
C          3.65628         0.62953         0.42047
C          4.96998         1.38896         0.53200
C          6.22640         0.67835         0.24268
C          7.45372         1.41243         0.23477
C          8.69304         0.70289         0.17927
C          9.92495         1.43425         0.23721
C         11.15494         0.68198         0.28612
C         -9.88477         2.83455         0.20168
C         -8.66444         3.57079         0.20693
C         -7.44701         2.84026         0.09245
C         -6.16317         3.53445         0.23844
C         -4.91882         2.84683        -0.17716
C         -3.69433         3.54375        -0.24047
C         -2.47052         2.85891        -0.36684
C         -1.21228         3.57295        -0.19650
C         -0.02957         2.87981        -0.12002
C          1.18938         3.57412         0.43214
C          2.47544         2.81493         0.24876
C          3.71639         3.53906         0.34675
C          4.92665         2.84746         0.41551
C          6.20270         3.54879         0.56927
C          7.46457         2.82600         0.35659
C          8.67928         3.55688         0.28863
C          9.90281         2.83482         0.24447
C         -8.65906         5.00007         0.26668
C         -7.47580         5.76559         0.32394
C         -6.18955         5.02340         0.44736
C         -4.95307         5.76890         0.05868
C         -3.68683         5.02315        -0.23444
C         -2.41875         5.74952        -0.08850
C         -1.21097         5.03308        -0.07063
C          0.02244         5.73228        -0.10785
C          1.26246         5.01815        -0.00143
C          2.47813         5.66984        -0.10600
C          3.72398         4.99121         0.15168
C          4.92307         5.71329         0.11408
C          6.19854         5.06474         0.45615
C          7.47999         5.73458         0.15802
C          8.65591         4.99569         0.18806
C         -7.43664         7.16756         0.21805
C         -6.23225         7.93892         0.51902
C         -4.86797         7.18624         0.48072
C         -3.63509         7.90879         0.18397
C         -2.43257         7.17950        -0.02246
C         -1.19720         7.89077        -0.10165
C          0.02708         7.16752        -0.19506
C          1.24788         7.86267        -0.32274
C          2.49823         7.08415        -0.63082
C          3.76408         7.83628        -0.33398
C          4.95043         7.13739        -0.13775
C          6.22333         7.83762        -0.14937
C          7.42988         7.14486        -0.07371
C         -6.12014         9.38933         0.27644
C         -4.92109        10.02375         0.19837
C         -3.63710         9.33262         0.17440
C         -2.42646        10.01991         0.01932
C         -1.18703         9.32226        -0.09310
C          0.05595         9.99502        -0.21179
C          1.26709         9.28410        -0.33944
C          2.53767         9.96535        -0.44901
C          3.74655         9.27452        -0.41940
C          5.01912         9.95826        -0.41745
C          6.19411         9.27005        -0.31357
C        -11.13656        -0.67966         0.13152
C         -9.91715        -1.43326        -0.03669
C         -8.68565        -0.70514        -0.18406
C         -7.48317        -1.42239        -0.42433
C         -6.26766        -0.65582        -0.73295
C         -4.94123        -1.42831        -0.84030
C         -3.69392        -0.68601        -0.61865
C         -2.47853        -1.40835        -0.52166
C         -1.23865        -0.69221        -0.46398
C          0.00464        -1.41894        -0.41807
C          1.24637        -0.71163        -0.25571
C          2.47762        -1.46084        -0.21569
C          3.71244        -0.77973         0.01556
C          4.95585        -1.41226        -0.13655
C          6.20570        -0.70827         0.00554
C          7.46233        -1.42790        -0.03044
C          8.69079        -0.71436         0.13549
C          9.92583        -1.44030         0.24652
C         11.15301        -0.68361         0.31869
C         -9.89782        -2.82781        -0.05962
C         -8.67991        -3.55605        -0.19273
C         -7.45051        -2.83133        -0.40010
C         -6.20316        -3.55488        -0.46834
C         -4.96531        -2.87040        -0.58812
C         -3.72921        -3.55588        -0.48202
C         -2.48628        -2.83848        -0.51214
C         -1.25465        -3.55068        -0.48581
C         -0.01241        -2.83170        -0.45310
C          1.22136        -3.56376        -0.46930
C          2.46255        -2.86957        -0.39615
C          3.71038        -3.60071        -0.48289
C          4.96128        -2.81201        -0.56617
C          6.29875        -3.57756        -0.51449
C          7.49326        -2.83311        -0.11082
C          8.69212        -3.56364         0.16364
C          9.90774        -2.83579         0.31925
C         -8.65177        -4.96180        -0.10335
C         -7.43581        -5.68282        -0.13601
C         -6.19704        -4.97088        -0.29438
C         -4.96283        -5.68192        -0.25984
C         -3.72257        -4.97735        -0.35736
C         -2.48794        -5.68440        -0.33678
C         -1.25289        -4.97604        -0.44260
C         -0.01498        -5.69582        -0.49455
C          1.19946        -4.97982        -0.57920
C          2.46660        -5.69085        -0.79132
C          3.73760        -4.96984        -0.63440
C          5.02691        -5.76095        -0.83655
C          6.24872        -5.01811        -0.33898
C          7.41194        -5.69046         0.07575
C          8.62561        -4.97387         0.26892
C         -7.40512        -7.09492         0.02383
C         -6.19885        -7.80079         0.05525
C         -4.95531        -7.09718        -0.08412
C         -3.72143        -7.80241        -0.02432
C         -2.48707        -7.10592        -0.17227
C         -1.25382        -7.81575        -0.11434
C         -0.01546        -7.13241        -0.32886
C          1.19580        -7.85260        -0.24182
C          2.46701        -7.21876        -0.60748
C          3.74225        -7.85451        -0.20686
C          4.94115        -7.16952        -0.27165
C          6.16172        -7.81804         0.16433
C          7.35312        -7.11718         0.27730
C         -6.16084        -9.22918         0.24954
C         -4.97702        -9.90498         0.32339
C         -3.71305        -9.22208         0.19709
C         -2.49692        -9.89975         0.30796
C         -1.25514        -9.22074         0.16846
C         -0.01965        -9.89274         0.34039
C          1.20084        -9.22158         0.16941
C          2.46102        -9.87932         0.39023
C          3.67776        -9.22289         0.26815
C          4.91892        -9.88471         0.58757
C          6.10222        -9.21283         0.53601
O          5.21787        -5.88279        -2.28336
H          5.31864        -4.96320        -2.62485
O         -5.67414        -0.99761        -2.03516
O          2.49335         6.93108        -2.11449
H          2.47169         7.83626        -2.49326
O          0.97512         3.60258         1.89459
H          1.81055         3.90860         2.30860
O          4.26538         0.88529         1.73058
O          0.23824         1.60715        -2.09495
H         -0.56952         2.03157        -2.45663
O          6.20421         4.41248         1.77243
O         -6.02985         4.16614         1.60504
O         -5.51716         7.49012         1.73255
O          2.45724        -6.61231        -1.93603
O          5.71330        -3.08881        -1.79658
O         -4.55086         5.58156        -1.32922
H         12.10265        -1.23475         0.38659
H         12.10570         1.23372         0.32880
H         10.85244         3.39080         0.23526
H          9.61541         5.51500         0.04040
H          8.37563         7.69868        -0.17800
H          7.15185         9.81131        -0.32958
H          5.02576        11.05441        -0.50928
H          2.54382        11.06517        -0.48074
H          0.07490        11.09521        -0.20736
H         -2.42481        11.12016        -0.00224
H         -4.90342        11.11521         0.05610
H         -7.04997         9.96664         0.15818
H         -8.34277         7.71254        -0.08732
H         -9.62809         5.52177         0.26810
H        -10.83565         3.37628         0.31696
H        -12.07131         1.23661         0.31223
H        -12.08423        -1.23106         0.22117
H        -10.83875        -3.38544         0.06256
H         -9.59502        -5.50954         0.04221
H         -8.35425        -7.63878         0.14384
H         -7.11388        -9.76937         0.34975
H         -4.96984       -10.99335         0.48311
H         -2.49414       -10.98158         0.50921
H         -0.01878       -10.95980         0.60802
H          2.44992       -10.93006         0.71719
H          4.88758       -10.93939         0.89781
H          7.04047        -9.71811         0.80883
H          8.26233        -7.64178         0.60610
H          9.53882        -5.53618         0.51280
H         10.84646        -3.38700         0.47809
