         260
 CSIRO Nanostructure Databank - Neutral Graphene Oxide Data Set
C         30.93770        31.57824        -1.75593
C         30.92659        32.83322        -1.73670
C         30.27883        35.86758        -0.79941
C         30.72918        37.00911        -0.98639
C         30.72135        40.05226        -1.80011
C         30.62440        41.29487        -1.83255
C         32.82287        28.73248        -0.23865
C         31.86751        29.30179        -0.79626
C         33.08533        31.30301        -0.93370
C         31.90864        30.63717        -1.32651
C         32.92729        33.48906        -0.66275
C         31.57466        33.74344        -0.80097
C         32.85481        36.20334         0.59397
C         30.57206        34.63564        -0.15921
C         33.01884        37.36744        -0.34012
C         31.82210        37.92816        -0.96983
C         33.11247        39.95112        -1.70320
C         31.82663        39.21541        -1.46423
C         33.11639        41.44225        -1.99822
C         31.73093        42.20015        -2.15123
C         32.93810        44.19081        -1.52393
C         31.88646        43.60542        -1.79704
C         35.18573        27.23724         1.28305
C         35.24627        28.59781         0.58078
C         33.94777        29.34842         0.48475
C         35.25612        31.68993         0.43726
C         34.04388        30.85657         0.09132
C         35.26458        33.06954         0.47757
C         34.20619        34.09773        -0.09031
C         35.31156        36.09277         0.91299
C         34.02768        35.27574         0.91434
C         35.38491        37.47832         0.32481
C         34.21972        38.03860        -0.39886
C         35.57282        40.17326        -0.89109
C         34.38072        39.30316        -1.15962
C         35.58040        41.51724        -1.12311
C         34.38831        42.21806        -1.70990
C         35.39354        44.41709        -0.67179
C         34.33668        43.75778        -1.52789
C         35.57643        45.89660        -0.84974
C         37.66096        27.12892         1.27448
C         36.35078        26.69900         1.22648
C         37.69673        28.62258         1.46149
C         36.40031        29.39905         1.21358
C         37.72865        31.62855         1.28786
C         36.39651        30.92427         1.08418
C         37.81892        33.05006         0.90528
C         36.51438        33.76751         0.95464
C         37.87700        35.90577         0.65184
C         36.55688        35.26598         1.08894
C         37.89608        37.45599         0.75187
C         36.72953        38.05161        -0.01898
C         38.06503        40.23287        -0.22102
C         36.82868        39.45855        -0.54203
C         38.06256        41.66992        -0.35113
C         36.85754        42.30155        -0.94939
C         38.05266        44.58792        -0.49336
C         36.80833        43.80887        -0.90590
C         38.00303        46.10281        -0.41849
C         36.59828        46.50388        -0.51480
C         40.06909        24.38174         0.52937
C         38.97622        24.97964         0.60769
C         40.27779        27.02324         1.23082
C         38.86895        26.31373         1.20786
C         40.29474        28.54143         1.56644
C         39.00323        29.32517         1.06610
C         40.25872        31.57962         0.96281
C         39.03010        30.83458         1.57178
C         40.35697        33.03825         1.43755
C         39.01731        33.76710         1.40836
C         40.35247        35.99719         1.47233
C         39.04441        35.26212         1.38288
C         40.35228        37.44059         1.07113
C         39.24853        38.02449         0.20520
C         40.26274        40.34010         0.90238
C         39.18066        39.54731         0.22529
C         40.50787        41.74081         0.23919
C         39.18419        42.46376         0.05216
C         40.39184        44.65763         0.49876
C         39.22288        43.86952         0.06797
C         40.34630        46.05499         0.54500
C         39.01474        46.83435         0.40684
C         40.45618        48.77910         0.05242
C         39.39516        48.17965        -0.17847
C         42.65653        24.36289         0.06475
C         41.39184        24.91083         0.45831
C         42.57927        27.09428         0.05763
C         41.45671        26.30071         0.68635
C         42.60265        28.60032         0.19985
C         41.58677        29.30019         1.09192
C         42.77712        31.60217         0.63401
C         41.57272        30.80798         1.08776
C         42.82430        33.10361         0.72831
C         41.58923        33.83943         1.16102
C         42.78310        35.96366         0.69480
C         41.61672        35.20756         1.28649
C         43.18603        37.30454         1.17382
C         41.33780        38.25350         1.48848
C         42.86064        40.24971         1.13567
C         41.57247        39.55248         0.78044
C         42.81909        41.69001         1.40827
C         41.56371        42.48719         1.05638
C         42.78897        44.61487         1.29858
C         41.63217        43.96486         0.91408
C         42.79578        46.08712         1.42778
C         41.53441        46.84516         0.99072
C         42.93773        48.83742         0.79383
C         41.70004        48.30870         0.55888
C         43.75637        24.93216        -0.03983
C         45.15724        27.11407        -0.61181
C         43.88277        26.36155        -0.39388
C         45.13906        28.66004        -0.53908
C         43.83645        29.37766        -0.25334
C         45.07746        31.68489        -0.41991
C         43.82708        30.90580        -0.16477
C         45.09966        33.17711        -0.28676
C         43.93571        33.81681         0.00921
C         45.01087        36.06894        -0.64205
C         43.82129        35.27975        -0.14353
C         45.02397        37.56395        -0.42658
C         44.05108        38.14338         0.52980
C         45.27385        40.31711         0.66426
C         44.08000        39.59308         0.82807
C         45.44657        41.64315         1.38774
C         44.12304        42.40455         1.61647
C         45.37301        44.62735         1.50911
C         44.07580        43.90356         1.60322
C         45.31603        46.07315         2.02971
C         44.12456        46.79393         1.45669
C         43.92017        48.11000         1.22575
C         47.59489        27.35522        -0.61237
C         46.56109        26.68295        -0.52500
C         47.79961        28.77398        -0.25990
C         46.41925        29.43636        -0.26184
C         47.65766        31.72947        -0.44784
C         46.37770        30.95275        -0.29350
C         47.60705        33.23336        -0.60693
C         46.27589        33.82732        -1.02915
C         47.56583        36.15213        -1.09228
C         46.27611        35.36908        -1.04432
C         47.56756        37.55998        -0.94402
C         46.32551        38.31600        -0.64223
C         47.65368        40.53211        -0.28286
C         46.38474        39.74831        -0.13403
C         47.74874        41.94531         0.25031
C         46.55137        42.54898         0.86699
C         47.90653        44.58416         1.46605
C         46.55046        43.92729         1.22077
C         47.70407        46.01064         1.68042
C         46.66359        46.67309         1.69646
C         50.29981        29.13637        -0.78661
C         48.98660        29.59384        -0.61501
C         49.89571        31.76871        -1.50071
C         48.87417        30.99407        -0.87530
C         50.02696        33.18229        -1.37003
C         48.84195        33.98316        -0.97027
C         50.02301        36.09837        -1.65476
C         48.76650        35.41957        -1.29989
C         50.07483        37.64146        -1.45235
C         48.89831        38.26984        -0.69792
C         50.24021        40.51642        -0.73340
C         48.90221        39.81235        -0.77413
C         50.34370        41.74094         0.17827
C         49.10831        42.60346         0.34280
C         50.57228        44.36213         1.13907
C         49.18187        43.87475         1.18775
C         51.51197        29.53049        -0.79892
C         52.70882        31.80169        -1.27463
C         51.88256        30.68179        -1.52473
C         52.36448        32.98561        -1.55611
C         51.26373        33.86992        -1.54896
C         52.42729        36.09821        -1.69261
C         51.29369        35.30167        -1.64611
C         52.37005        37.38006        -1.62058
C         51.41495        38.29089        -1.28008
C         52.66348        40.36114        -0.41082
C         51.56884        39.78805        -1.23870
C         52.79388        41.50850         0.03694
C         51.71888        42.28485         0.64737
C         51.60634        43.71528         0.95214
O         39.62985        33.27930         2.65589
O         46.64589        40.58799        -1.34006
O         47.09176        29.01808         0.97515
O         50.77525        31.10705        -2.38099
O         42.41446        37.77658         2.25805
O         44.34754        26.64586        -1.71364
O         44.09384        43.12282         2.88335
O         41.97193        27.96546        -0.95362
O         36.98509        38.27099        -1.42739
O         39.69961        26.34438         2.38406
O         48.60906        43.81980         2.50225
O         36.46332        34.50043         2.31639
O         38.49345        45.48954        -1.60474
O         36.84769        29.04974         2.55287
O         35.21086        37.26711         1.76394
O         36.74692        31.48906         2.38741
O         33.39945        32.49557        -1.60148
O         37.07904        43.13959        -2.14750
O         39.49195        35.80946         2.65580
O         43.37238        32.26570         1.80294
O         48.34917        33.84940         0.47619
O         45.29617        35.78066        -2.04822
O         31.79200        36.01648         1.18136
O         42.62583        35.83029        -0.77583
O         45.26112        38.26937        -1.66152
O         50.91186        41.45608         1.50605
O         48.32102        42.80867        -0.83755
O         41.83569        46.62075         2.41029
O         34.71079        43.18320        -2.76857
O         33.48577        30.34702         1.37869
O         47.11490        31.43257         0.87382
O         34.00725        39.19619        -2.57199
O         32.48995        41.79802        -3.27786
O         49.38978        40.56158        -1.91642
O         41.03663        41.60598        -1.03852
O         42.03446        30.06175         2.24770
O         44.12048        31.42276        -1.50109
O         41.81399        42.06208         2.43167
O         49.83549        37.07160        -2.75425
O         44.29215        29.09419        -1.61181
O         49.19169        38.06476         0.72532
H         49.18569        37.10218         0.91867
O         29.81930        34.12249         0.78249
H         29.14402        34.75449         1.10294
O         51.80004        40.19968        -2.58256
H         50.93535        40.21438        -3.05343
O         39.80567        40.49150         2.24657
H         40.46580        41.02470         2.75703
O         46.14998        33.38824        -2.40065
H         45.49649        33.98431        -2.83784
O         39.19271        30.82363         2.98582
H         38.29445        30.85127         3.39403
O         35.62818        28.39880        -0.79405
H         35.03318        27.72605        -1.18917
O         37.75499        37.85324         2.11367
H         38.35226        37.29679         2.67317
O         34.83391        34.70613        -1.24027
H         34.88815        34.03379        -1.95533
O         38.47658        47.01421         1.70692
H         39.13134        47.48460         2.26483
O         35.07248        44.14335         0.70028
H         34.35739        44.74872         0.98880
O         41.70458        39.19500        -0.61342
H         41.56858        40.04479        -1.13958
O         37.97893        35.49973        -0.72951
H         38.64143        36.09203        -1.18045
O         38.96449        29.24836        -0.36588
H         39.52436        29.95609        -0.76636
O         39.49285        37.58188        -1.15058
H         38.93692        38.12273        -1.75815
O         40.30677        28.52693         2.98469
H         40.34812        29.45337         3.32404
O         40.02750        31.65651        -0.47669
H         40.75489        32.15639        -0.90607
O         45.92470        41.24287         2.71241
H         45.62944        41.94444         3.34264
O         45.14800        46.01235         3.43907
H         44.90579        46.89968         3.77533
O         33.77757        34.74037         2.21402
H         34.64978        34.57164         2.65387
