         244
 CSIRO Nanostructure Databank - Neutral Graphene Oxide Data Set
C          1.83316         2.26052         2.30440
C          1.73837         3.63149         2.06529
C          2.93859         1.52963         1.87248
C          2.76174         4.32327         1.36763
C          1.59235         6.54283         1.62301
C          1.60397         7.89694         1.63672
C          2.72462         5.76496         1.17029
C          2.86121         8.66980         1.36118
C          1.40225        10.70518         0.75557
C          1.23573        12.00199         0.30460
C          2.66478        10.06599         0.81548
C          2.37678        12.88919         0.18011
C          1.09195        15.04563        -0.15891
C          1.14897        16.38672         0.01913
C          2.29299        14.22888        -0.55573
C          2.39202        17.11734        -0.05542
C          2.42497        18.52060         0.12149
C          3.99048         2.17967         1.18466
C          3.88988         3.57840         0.94581
C          5.12022         1.44366         0.69705
C          4.92805         4.21573         0.11690
C          3.80204         6.45689         0.56954
C          3.86903         7.86911         0.56343
C          4.86798         5.69742        -0.11747
C          4.94875         8.54792        -0.06385
C          3.79553        10.70734         0.25487
C          3.75408        12.16570         0.09407
C          4.91655         9.96605        -0.18686
C          4.81966        12.86388        -0.61754
C          3.59922        14.99277        -0.43606
C          3.60995        16.39908        -0.26425
C          4.81679        14.28688        -0.61782
C          4.85636        17.10994        -0.23216
C          3.62019        19.21564         0.12526
C          4.86650        18.53342        -0.02436
C          6.23621         2.05886         0.11541
C          6.30985         3.56804         0.08316
C          7.38834         1.34119        -0.22556
C          7.16832         4.14376        -1.07061
C          6.12397         6.39132        -0.51351
C          6.11743         7.82117        -0.52361
C          7.27111         5.66028        -0.84392
C          7.30738         8.53102        -0.85865
C          5.94085        10.59339        -1.11072
C          5.95337        12.11584        -1.10942
C          7.31014         9.95589        -0.95483
C          7.31485        12.88791        -1.11540
C          6.07407        14.99905        -0.63642
C          6.07840        16.41272        -0.38004
C          7.29199        14.30160        -0.73064
C          7.32116        17.10412        -0.23145
C          6.09015        19.22069         0.04251
C          7.32809        18.53208        -0.02915
C          8.58238         1.98768        -0.67029
C          8.54122         3.40946        -1.22867
C          9.79052         1.33381        -0.62201
C          9.72971         4.19693        -0.70190
C          8.52828         6.35185        -0.97585
C          8.54156         7.81332        -0.98155
C          9.72606         5.64569        -0.96296
C          9.74980         8.51866        -0.99786
C          8.51885        10.67149        -1.00382
C          8.54843        12.11230        -0.95427
C          9.77811         9.95069        -0.93423
C          9.74153        12.80306        -0.68246
C          8.53227        14.95455        -0.45095
C          8.53947        16.38566        -0.22559
C          9.72405        14.21149        -0.43870
C          9.77052        17.07909        -0.03819
C          8.55802        19.20836         0.11844
C          9.78616        18.50873         0.12080
C         11.07798         2.00428        -1.03232
C         11.03550         3.48209        -0.65215
C         12.30697         1.37205        -0.44042
C         12.30322         4.24961        -0.76691
C         11.00602         6.33055        -1.33425
C         11.04105         7.76959        -0.75756
C         12.28876         5.60816        -0.99184
C         12.25627         8.53072        -1.35238
C         10.99896        10.65303        -0.85669
C         11.01144        12.07954        -0.74559
C         12.32498         9.91897        -0.69240
C         12.21045        12.79669        -0.81571
C         10.99104        14.85252         0.06690
C         10.99813        16.36346         0.00778
C         12.20708        14.24859        -0.60359
C         12.19817        17.04209         0.18599
C         11.02569        19.17292         0.33222
C         12.23495        18.46303         0.38392
C         13.47807         2.09392        -0.25396
C         13.53161         3.52898        -0.51492
C         14.68668         1.43925         0.13492
C         14.74295         4.20935        -0.47283
C         13.52561         6.37684        -1.02234
C         13.53059         7.74006        -1.15781
C         14.84317         5.61952        -1.00881
C         14.85732         8.45718        -1.29429
C         13.51320        10.66990        -1.28241
C         13.46983        12.17369        -1.26705
C         14.82741         9.97480        -1.19242
C         14.77335        12.93184        -1.22418
C         13.50960        14.96800        -0.42336
C         13.45012        16.26208         0.31753
C         14.80971        14.27584        -0.58764
C         14.72840        16.94556         0.65986
C         13.49497        19.11286         0.62317
C         14.71040        18.43304         0.70755
C         15.89593         2.13675         0.23886
C         15.93871         3.54902        -0.06373
C         17.10074         1.47690         0.61974
C         17.14233         4.27544         0.10650
C         15.97877         6.39738        -0.38481
C         15.85959         7.89998        -0.27280
C         17.14627         5.72733        -0.01669
C         17.19515         8.55127        -0.41427
C         16.00999        10.64589        -1.12203
C         16.06481        12.13212        -1.17926
C         17.33301         9.87825        -1.09771
C         17.30508        12.83065        -0.77612
C         15.99073        14.89076        -0.26595
C         16.05349        16.19159         0.53933
C         17.27637        14.23609        -0.51102
C         17.17732        17.09104         0.01424
C         15.94869        19.10842         0.85482
C         17.18024        18.44306         0.70074
C         18.29347         2.17975         0.76208
C         18.32004         3.60564         0.54129
C         19.50711         1.51750         1.16554
C         19.51455         4.33253         0.77986
C         18.35245         6.44171         0.28537
C         18.31105         7.95308         0.37591
C         19.52881         5.76769         0.64127
C         19.65363         8.61088         0.18931
C         18.50525        10.67249        -0.54066
C         18.49594        12.08659        -0.62969
C         19.68991        10.00162        -0.13852
C         19.78265        12.79880        -0.65523
C         18.47481        14.95991        -0.31216
C         18.48030        16.33199         0.14131
C         19.76326        14.33656        -0.61198
C         19.62443        16.92554         0.62641
C         18.39066        19.04032         1.05385
C         19.62142        18.32031         1.03454
C         20.65947         2.22097         1.36798
C         20.69497         3.64848         1.19717
C         21.86508         4.38811         1.44849
C         20.76016         6.49003         0.85628
C         20.81114         7.91575         0.56845
C         21.89460         5.77205         1.26997
C         22.05001         8.63817         0.63530
C         20.94014        10.72682         0.00741
C         21.00897        12.09779        -0.28430
C         22.10277         9.98362         0.40315
C         22.22860        12.87554        -0.22257
C         21.04643        15.12570        -0.36483
C         20.85956        16.06710         0.84637
C         22.25718        14.22844        -0.23897
C         22.09175        16.87034         1.16413
C         20.81430        18.92814         1.43135
C         22.03983        18.19839         1.45720
O         13.27978        11.39257        -2.51031
O         10.28626         3.76071         0.58369
O         19.85902        13.63709        -1.88408
O          3.29093        12.88445         1.29410
O         15.55686        12.74509        -2.43239
O          6.54853        12.61724        -2.34373
O         13.92499        16.27620         1.70957
O         11.14744         7.71866         0.62910
O          4.35664         4.74562        -1.13792
O         12.76438        15.04646        -1.69379
O         16.90354        17.32020        -1.39022
H         17.65673        17.81566        -1.77368
O          2.11285        13.86171        -1.96249
H          2.07835        14.68963        -2.48632
O         10.96531         6.43451        -2.80113
H         10.88651         5.52585        -3.16343
O         15.31078         8.21566         1.04600
H         16.05000         8.13870         1.69528
O         20.59919        15.18528         1.97856
H         20.37565        15.74613         2.75066
O         12.08794         8.79057        -2.75543
H         11.80067         7.95178        -3.19113
O         21.25158        15.96384        -1.52520
H         21.11171        15.39211        -2.31209
O          5.48624        10.21255        -2.45217
H          5.93418        10.82749        -3.07766
O         15.36833         8.15060        -2.62519
H         14.81279         8.63653        -3.27245
O         11.19940         1.91705        -2.48556
H         10.35775         2.28709        -2.85601
O         12.60432         9.81236         0.70863
H         12.07740         9.02117         1.04331
O          6.97348         3.98322         1.30764
H          6.75444         3.34744         2.01969
O          3.49745         8.87765         2.68676
H          3.65441         7.98962         3.07296
O         17.70104         9.64655        -2.50474
H         17.60131        10.49994        -2.97893
O          6.48800         3.91237        -2.32120
H          5.57814         4.30640        -2.25554
O         15.23334         5.44001        -2.41667
H         15.40587         6.35109        -2.77336
O         16.45045        15.81027         1.87733
H         15.62209        15.59460         2.36607
O         17.96955         8.19134         1.81570
H         18.65416         7.73066         2.34890
O          8.82759         3.30309        -2.65280
H          7.94880         3.30981        -3.10968
O         11.11443        14.47975         1.47649
H         10.36096        14.87451         1.96338
H          1.02010         1.75012         2.83967
H          0.85074         4.16737         2.42571
H          2.99559         0.44708         2.05328
H          0.67691         6.01857         1.93113
H          0.72134         8.43574         2.00921
H          0.49950        10.11068         0.95724
H          0.23634        12.36020         0.01904
H          0.12288        14.52747        -0.10565
H          0.23201        16.94979         0.25132
H          1.47720        19.05885         0.26973
H          5.11936         0.34934         0.81443
H          3.62471        20.30531         0.27189
H          7.41716         0.25589        -0.03959
H          6.09025        20.31033         0.19458
H          9.82590         0.29440        -0.25765
H          8.55812        20.29891         0.26381
H         12.30178         0.29067        -0.22985
H         11.02738        20.26206         0.48805
H         14.66860         0.35555         0.32547
H         13.50226        20.21139         0.69533
H         17.07771         0.39513         0.81998
H         15.94384        20.17895         1.11359
H         19.48561         0.42808         1.31483
H         18.38876        20.06651         1.45329
H         21.57969         1.70603         1.68038
H         22.77389         3.86410         1.77757
H         22.84036         6.29679         1.45952
H         22.97405         8.11361         0.91111
H         23.06407        10.50341         0.50986
H         23.18496        12.33860        -0.13974
H         23.23426        14.73434        -0.22394
H         23.04882        16.33320         1.23277
H         20.81200        19.98854         1.72033
H         22.96132        18.73266         1.73225
