         200
 CSIRO Nanostructure Databank - Neutral Graphene Oxide Data Set
C        -11.03865         0.59242         0.40838
C         -9.79943         1.33497         0.39548
C         -8.56472         0.60272         0.25949
C         -7.32360         1.30688         0.31027
C         -6.11653         0.57326         0.10767
C         -4.87268         1.25363         0.22917
C         -3.64526         0.56443        -0.01584
C         -2.40780         1.27759         0.00675
C         -1.19039         0.63258        -0.37105
C          0.03776         1.39657        -0.33903
C          1.26035         0.73754        -0.92875
C          2.55377         1.41790        -0.59148
C          3.75903         0.71916        -0.57507
C          5.02770         1.42941        -0.48839
C          6.23740         0.68617        -0.34831
C          7.54770         1.39276        -0.55519
C          8.72059         0.68304         0.05762
C          9.93520         1.42336         0.25047
C         11.13042         0.68524         0.58858
C         -9.76869         2.72184         0.47405
C         -8.53542         3.44618         0.49855
C         -7.28956         2.72484         0.50963
C         -6.05465         3.42186         0.70042
C         -4.85846         2.59828         0.68545
C         -3.57877         3.07865         1.05433
C         -2.37735         2.59284         0.53584
C         -1.21616         3.51070         0.17066
C          0.08500         2.73526         0.03031
C          1.33109         3.46301        -0.04261
C          2.52415         2.83998        -0.40353
C          3.78347         3.58289        -0.80389
C          5.05854         2.83047        -0.52571
C          6.29273         3.56474        -0.36893
C          7.51260         2.86701        -0.25802
C          8.72639         3.57039        -0.02483
C          9.93925         2.81836         0.15911
C         -8.51210         4.84796         0.45274
C         -7.29130         5.56411         0.44466
C         -6.05406         4.87108         0.68449
C         -4.87192         5.70140         0.69748
C         -3.60424         5.22350         1.10428
C         -2.39406         5.75653         0.69753
C         -1.15634         4.92393         0.80004
C          0.11736         5.68264         0.64305
C          1.35968         4.89166         0.35672
C          2.59726         5.65337         0.12017
C          3.84448         5.00351        -0.34625
C          5.02739         5.68350        -0.18177
C          6.29025         4.98491        -0.23441
C          7.49559         5.70337         0.00028
C          8.70436         4.98250         0.08465
C         -7.29789         6.96828         0.17109
C         -6.12472         7.70565         0.01382
C         -4.86893         7.05408         0.25215
C         -3.63810         7.77209         0.12555
C         -2.38492         7.11569         0.29252
C         -1.14546         7.82997         0.18882
C          0.10423         7.16034         0.36514
C          1.29444         7.87981         0.18679
C          2.57659         7.13725        -0.08736
C          3.81934         7.64387         0.58350
C          5.02591         7.07689         0.27427
C          6.26187         7.84690         0.26467
C          7.45089         7.15140         0.12267
C         -6.10255         9.10715        -0.33630
C         -4.92926         9.79977        -0.43717
C         -3.64734         9.16795        -0.21721
C         -2.43928         9.86098        -0.32938
C         -1.17728         9.22355        -0.12254
C          0.04978         9.93329        -0.23798
C          1.28456         9.29447        -0.08802
C          2.53848        10.03567        -0.36390
C          3.74342         9.74797         0.23081
C          5.11678        10.11585        -0.09942
C          6.20776         9.29838         0.07243
C        -11.05261        -0.76642         0.30446
C         -9.83179        -1.52335         0.13961
C         -8.58331        -0.80247         0.08826
C         -7.36778        -1.52932        -0.12458
C         -6.12502        -0.82206        -0.14388
C         -4.89652        -1.52469        -0.35833
C         -3.65659        -0.81724        -0.35270
C         -2.43046        -1.49570        -0.65006
C         -1.19459        -0.74843        -0.68182
C          0.06135        -1.43019        -0.89637
C          1.27906        -0.75870        -0.80466
C          2.53232        -1.45602        -0.68334
C          3.75781        -0.72838        -0.52786
C          4.95767        -1.41724        -0.24452
C          6.20897        -0.70197        -0.14623
C          7.42010        -1.41550         0.16354
C          8.66517        -0.69526         0.27394
C          9.87221        -1.41543         0.62311
C         11.10092        -0.66806         0.75177
C         -9.83748        -2.90852         0.04768
C         -8.62903        -3.65999        -0.16045
C         -7.37880        -2.93506        -0.28059
C         -6.14941        -3.65023        -0.46991
C         -4.90420        -2.93484        -0.53033
C         -3.67625        -3.63058        -0.75186
C         -2.46584        -2.89507        -0.88281
C         -1.23694        -3.60676        -1.27757
C          0.06186        -2.86195        -1.23159
C          1.36030        -3.63109        -1.00100
C          2.55184        -2.87304        -0.58431
C          3.72249        -3.56713        -0.21418
C          4.94129        -2.83441        -0.03618
C          6.12980        -3.49161         0.37467
C          7.36720        -2.80061         0.45785
C          8.60223        -3.52652         0.73641
C          9.83420        -2.78939         0.78913
C         -8.64155        -5.04289        -0.23560
C         -7.43133        -5.82830        -0.64669
C         -6.14117        -5.05895        -0.51635
C         -4.90777        -5.76541        -0.51432
C         -3.67074        -5.07151        -0.71882
C         -2.46085        -5.81880        -0.79886
C         -1.20209        -5.13121        -1.19483
C          0.10162        -5.78130        -0.89843
C          1.28768        -5.08391        -0.73304
C          2.50187        -5.74768        -0.30693
C          3.69279        -5.00996        -0.06920
C          4.85833        -5.68491         0.39618
C          6.03666        -4.89786         0.77867
C          7.37049        -5.66447         1.04774
C          8.60658        -4.90480         0.88507
C         -7.34933        -7.19398        -0.02671
C         -6.14807        -7.83746         0.11357
C         -4.89968        -7.16464        -0.22107
C         -3.67857        -7.86016        -0.15581
C         -2.47129        -7.19692        -0.52241
C         -1.23571        -7.99397        -0.62289
C          0.10687        -7.24718        -0.77094
C          1.30795        -7.91699        -0.27066
C          2.49462        -7.16317        -0.07774
C          3.69251        -7.83509         0.31102
C          4.88428        -7.08976         0.53928
C          6.13028        -7.79400         0.79962
C          7.32948        -7.11611         0.90642
C         -6.07416        -9.20667         0.58637
C         -4.89159        -9.87616         0.64506
C         -3.64620        -9.25127         0.26176
C         -2.44597        -9.93908         0.35033
C         -1.20158        -9.34236        -0.02680
C          0.01395        -9.98985         0.13654
C          1.27009        -9.30378         0.03129
C          2.48379        -9.96473         0.35605
C          3.68426        -9.26014         0.46168
C          4.93344        -9.93433         0.73088
C          6.09765        -9.24051         0.85106
O         -0.38196         5.23075         1.97649
O          1.11111         0.97664        -2.40177
H          1.45200         0.18200        -2.86719
O         -7.61029        -6.06476        -2.10955
H         -7.59902        -5.18482        -2.54391
O          2.31928         5.16717         1.47291
O         -1.54179         3.87772        -1.22531
H         -1.46105         3.06898        -1.77669
O         -3.54232         4.12730         1.96540
O          7.78685         1.31365        -2.02695
H          8.63317         1.77988        -2.20023
O          3.69545         3.63987        -2.28358
H          3.54535         2.72318        -2.60146
O         -0.54934        -7.91131        -1.90783
O          0.93054        -3.21370        -2.34628
O          2.80674         7.29681        -1.52916
H          2.79929         8.25824        -1.73020
O          6.51313        -5.15770         2.13349
O         -1.34746        -4.43318        -2.47532
O          3.71429         8.82881         1.30915
H         12.02063        -1.21600         1.00486
H         12.07167         1.24039         0.71432
H         10.87790         3.36568         0.33267
H          9.64538         5.51919         0.27754
H          8.40328         7.70253         0.07230
H          7.18760         9.75644        -0.14696
H          5.29885        11.13320        -0.48244
H          2.49114        10.83240        -1.12284
H          0.02087        11.00759        -0.47406
H         -2.45362        10.93079        -0.58784
H         -4.94495        10.86846        -0.69891
H         -7.06058         9.61800        -0.51445
H         -8.27019         7.46182         0.01969
H         -9.45827         5.40088         0.35357
H        -10.71254         3.28605         0.51794
H        -11.98072         1.14973         0.51845
H        -12.00607        -1.31447         0.33250
H        -10.79037        -3.45480         0.11567
H         -9.59850        -5.58065        -0.15197
H         -8.28663        -7.71933         0.21248
H         -7.01026        -9.70746         0.87441
H         -4.86287       -10.92144         0.98685
H         -2.44023       -10.97310         0.72725
H          0.02196       -11.02729         0.50404
H          2.47292       -11.05052         0.53298
H          4.92828       -11.03103         0.81431
H          7.04288        -9.77184         1.03575
H          8.27719        -7.67567         0.91050
H          9.56511        -5.44494         0.91607
H         10.76176        -3.33623         1.01640
