         324
 CSIRO Nanostructure Databank - Neutral Graphene Oxide Data Set
C          1.27239         4.66293        -2.99122
C          0.13761         5.42957        -2.89255
C          1.11562         6.86445        -1.16009
C          0.07519         6.55078        -2.01555
C          1.05507         7.95620        -0.21445
C         -0.12371         8.66122         0.01379
C          1.02708        10.61049         0.95847
C         -0.13968         9.94233         0.60152
C          1.06592        12.03093         1.24157
C         -0.09331        12.80614         1.13111
C          1.03745        14.88160         1.71557
C         -0.08792        14.21104         1.29346
C          1.05648        16.33746         1.79687
C         -0.13172        17.09898         1.85970
C          1.10535        19.17613         1.48175
C         -0.09759        18.48126         1.71903
C          1.10519        20.59557         1.11214
C         -0.11028        21.29043         0.86519
C          1.09242        23.30760         0.20736
C         -0.11567        22.60530         0.44477
C          1.09760        24.66990        -0.28569
C         -0.08259        25.46627        -0.35862
C          1.14306        27.45517        -1.08396
C         -0.03833        26.83047        -0.65433
C          1.22681        28.83724        -1.38356
C          3.66265         4.41640        -2.52493
C          2.43548         4.96446        -2.20955
C          3.57110         6.43109        -0.41166
C          2.31562         5.99032        -1.14190
C          3.58833         7.80550         0.15137
C          2.27509         8.39099         0.48323
C          3.55813        10.54922         1.15557
C          2.26921         9.84059         1.07408
C          3.53842        11.96980         1.48899
C          2.31778        12.66245         1.57736
C          3.53957        14.83321         2.11784
C          2.21965        14.05796         2.19267
C          3.51963        16.23645         1.57709
C          2.28212        17.03254         1.68438
C          3.59526        19.11310         1.31802
C          2.32880        18.43913         1.50478
C          3.62884        20.63171         1.29942
C          2.31528        21.27755         0.90683
C          3.57001        23.32767         0.25367
C          2.32350        22.62180         0.43851
C          3.54400        24.65723        -0.24055
C          2.33799        25.28674        -0.59707
C          3.63640        27.29553        -1.54304
C          2.30305        26.55813        -1.42809
C          3.66063        28.75576        -1.76381
C          2.41137        29.45700        -1.74608
C          6.09198         4.44300        -2.45436
C          4.88812         4.84681        -1.92648
C          6.12205         6.53478        -0.52013
C          4.88540         5.67082        -0.64936
C          6.05745         7.74511         0.33005
C          4.75615         8.47865         0.45136
C          6.01313        10.62839         0.92627
C          4.74155         9.85958         0.91139
C          6.02353        11.99705         1.48100
C          4.80829        12.63696         1.71208
C          6.08946        14.82930         1.72488
C          4.82867        14.08810         1.99348
C          6.08006        16.20837         1.65255
C          4.82611        16.94941         1.37888
C          6.05624        19.13884         1.13219
C          4.80602        18.43271         1.30638
C          6.07901        20.47694         0.73336
C          4.76275        21.13981         0.40753
C          6.04944        23.30764         0.34758
C          4.82465        22.65126         0.41919
C          6.08703        24.77360         0.22734
C          4.78641        25.44844        -0.17476
C          6.11817        27.50622        -0.89077
C          4.90788        26.69666        -0.97134
C          6.13759        28.73788        -1.57493
C          4.88716        29.38616        -1.90141
C          8.53447         4.51281        -2.50730
C          7.34375         4.97188        -1.98405
C          8.58995         6.73121        -0.72557
C          7.31916         6.08776        -1.03854
C          8.61860         7.89805         0.06810
C          7.35208         8.45037         0.60006
C          8.57723        10.59874         1.20253
C          7.33471         9.93481         0.76012
C          8.54547        11.91684         1.58197
C          7.29563        12.67065         1.64603
C          8.56233        14.80707         1.75222
C          7.32027        14.07534         1.78465
C          8.57813        16.17165         1.59018
C          7.34097        16.95461         1.69680
C          8.56187        19.09099         0.90101
C          7.33389        18.45574         1.40335
C          8.52875        20.41236         0.49218
C          7.30263        21.16624         0.50015
C          8.51049        23.32322         0.17853
C          7.30732        22.59561         0.30689
C          8.53676        24.75613         0.06353
C          7.35660        25.46838        -0.03110
C          8.60598        27.45812        -0.91155
C          7.35538        26.99359        -0.18422
C          8.60524        28.66002        -1.70600
C          7.38218        29.35605        -1.88403
C         10.98349         4.50072        -2.59096
C          9.81004         5.02059        -2.07775
C         11.02865         6.79235        -0.81779
C          9.81285         6.16300        -1.16945
C         11.02951         8.02253        -0.12172
C          9.82480         8.57180         0.34515
C         11.11304        10.57775         1.24335
C          9.83630         9.75287         1.30435
C         11.11292        11.91695         1.65802
C          9.82546        12.58897         1.94334
C         11.12207        14.80521         1.76384
C          9.84245        14.09962         1.96738
C         11.12474        16.18997         1.45280
C          9.82490        16.83791         1.17124
C         11.09045        18.97047         0.67214
C          9.79702        18.28167         0.77551
C         11.06340        20.32664         0.11284
C          9.75971        21.06673        -0.00333
C         11.06566        23.27826         0.10586
C          9.77175        22.58654        -0.06153
C         11.16025        24.79242         0.36966
C          9.80485        25.59911         0.25049
C         10.91942        27.10912        -1.53716
C          9.78381        26.73142        -0.78474
C         11.03231        28.40681        -2.16936
C          9.82545        29.14935        -2.23934
C         13.55525         4.49502        -2.61087
C         12.27903         4.83762        -1.99781
C         13.59207         6.70591        -0.78552
C         12.29536         6.07738        -1.04769
C         13.61772         8.07620        -0.22849
C         12.30258         8.75233         0.06593
C         13.57910        10.62995         1.08406
C         12.33498         9.97928         0.87307
C         13.58015        11.97564         1.54258
C         12.33567        12.64641         1.73065
C         13.57811        14.79641         1.83060
C         12.33390        14.08575         1.82756
C         13.57302        16.22672         1.59380
C         12.32429        16.90437         1.31338
C         13.53335        19.05090         0.87057
C         12.30330        18.31133         0.91567
C         13.57769        20.44995         0.63511
C         12.34656        21.12245         0.14683
C         13.50921        23.35249         0.37286
C         12.24370        22.59178         0.16829
C         13.55273        24.59140        -0.47959
C         12.23237        25.23816        -0.61015
C         13.81228        27.12934        -2.15655
C         11.96998        26.14312        -1.60102
C         13.59795        28.52426        -2.42234
C         12.26280        29.01552        -2.58996
C         16.00546         4.56549        -2.66980
C         14.75106         4.97309        -2.08975
C         16.02079         6.39367        -0.37562
C         14.75601         6.06944        -1.13396
C         16.06122         7.80073         0.28816
C         14.83637         8.61760         0.38825
C         16.07542        10.61978         1.21312
C         14.83833         9.93309         0.86901
C         16.05190        11.94894         1.71485
C         14.82462        12.66914         1.78502
C         16.02963        14.83496         2.27874
C         14.79182        14.08544         1.99689
C         16.04606        16.33494         1.96983
C         14.77488        16.93527         1.53742
C         16.10627        19.05227         1.02719
C         14.76541        18.37883         1.30407
C         16.04561        20.41497         0.42854
C         14.79117        21.16091         0.65450
C         16.11168        23.40179         0.51085
C         14.80476        22.63112         0.61783
C         16.11276        24.86256        -0.06132
C         14.87152        25.28126        -0.81756
C         16.08931        27.42060        -1.50839
C         14.89639        26.63551        -1.44123
C         16.03315        28.73472        -2.10148
C         14.76844        29.31543        -2.42878
C         18.41642         4.83206        -3.03053
C         17.22787         5.09400        -2.28307
C         18.55704         6.84807        -1.01676
C         17.30699         6.02475        -1.12914
C         18.51711         8.25255        -0.45399
C         17.34868         8.57465         0.45273
C         18.55820        10.55580         1.28686
C         17.32402         9.97788         0.94077
C         18.59203        11.82050         1.96637
C         17.32244        12.57804         2.18936
C         18.56935        14.94527         2.38721
C         17.33288        14.09733         2.42717
C         18.57638        16.27838         1.87301
C         17.33506        16.97981         1.58486
C         18.61866        18.89018         0.62911
C         17.34465        18.24234         1.02234
C         18.64249        20.40598         0.25348
C         17.33622        21.15916         0.16008
C         18.57726        23.16971         0.75196
C         17.35323        22.59961         0.47742
C         18.56774        25.26706         0.18332
C         17.34924        25.60633        -0.39563
C         18.55533        27.51436        -1.41014
C         17.33127        26.83097        -1.15589
C         18.50088        28.80702        -2.03342
C         17.25434        29.40768        -2.32818
C         19.59179         5.56032        -2.86850
C         20.88670         7.35513        -1.69962
C         19.69205         6.61660        -1.94329
C         21.01942         8.21759        -0.62853
C         19.85485         8.58670         0.18210
C         21.07878        10.44067         1.53112
C         19.82543         9.79550         1.13818
C         21.03904        11.56564         2.29513
C         19.78565        12.19469         2.58024
C         20.96610        15.19505         2.91850
C         19.77154        14.46068         2.92950
C         20.98908        16.44100         2.31668
C         19.81098        17.00027         1.77536
C         21.04180        19.03342         0.98798
C         19.86334        18.30860         1.14531
C         21.06707        20.40549         0.64535
C         19.90685        21.14384         0.44739
C         20.95958        23.45142         0.21605
C         19.86517        22.59962         0.47596
C         20.94886        24.82185        -0.14529
C         19.83456        25.67206        -0.32826
C         20.99741        27.60109        -1.44428
C         19.82580        26.92257        -1.08426
C         20.93955        28.85629        -2.07858
C         19.72564        29.46224        -2.35154
O          6.73405         7.65573         1.65329
O          4.11038        16.31836         0.23207
O          2.59936         5.54266         0.23902
O         12.86358        26.25026        -2.67394
O         15.94211        15.83308         3.34586
O          9.67757        17.21469        -0.26878
O         13.00235         9.00031        -1.21931
O          9.63103        21.75475        -1.27775
O         12.26149         4.71138        -0.53792
O         15.50742        19.10972         2.36217
O         19.83742         8.37984         1.60961
O          4.53146        26.52640        -2.40413
O         18.35083         5.70849        -0.13575
O          7.43165        17.95395         2.79770
O         14.30604        24.26173        -1.70355
O         18.72073        19.35555        -0.75153
O          5.26856        25.54495         1.19026
O         18.59424        24.44688         1.31823
O         11.88905        20.47981        -1.09092
O         16.02922        24.57304         1.35971
O          4.32125        14.58372         3.32513
O         16.51705        20.66422        -0.94395
O          2.13364         8.65617         1.90769
O          9.61325        26.26753         1.48671
O         16.90779         7.67384         1.49290
O          9.80316        13.30509         3.21494
O          6.70314        10.58737        -0.40089
O         17.22976        13.15445         3.53453
O         19.82659        13.20546         3.54665
O         14.00270        23.25806         1.71708
O          5.01375         4.70535         0.43378
H          4.09805         4.48175         0.72348
O          7.36987        27.58226         1.13782
H          8.20972        27.21167         1.55990
O          1.93168        13.81486         3.60141
H          2.80608        13.77381         4.05977
O          4.42239        20.74711        -0.95265
H          5.17962        20.96496        -1.53535
O          2.00404        26.09591        -2.78836
H          2.86155        25.80909        -3.17932
O         15.93135         5.45405         0.72473
H         16.78491         5.51544         1.21322
O          3.93146        21.07320         2.65090
H          3.21123        20.77230         3.24295
O         11.65421        24.93708         1.70301
H         11.01020        25.56907         2.13767
O          9.82017         9.15329         2.63775
H          9.81476         9.87720         3.29949
O         18.33112         9.13932        -1.59533
H         19.04399         8.95122        -2.24383
H          1.32689         3.83781        -3.71587
H         -0.73296         5.20509        -3.52395
H         -0.83620         7.16416        -2.02466
H         -1.07196         8.27502        -0.38486
H         -1.10592        10.46293         0.63429
H         -1.03993        12.33631         0.83511
H         -0.99912        14.76677         1.02981
H         -1.09938        16.59895         2.00095
H         -1.04907        19.02796         1.75810
H         -1.07347        20.78170         1.00193
H         -1.08112        23.09728         0.26575
H         -1.04769        25.03110        -0.06541
H         -0.95030        27.43447        -0.53537
H          0.31382        29.44509        -1.29399
H          3.72385         3.70657        -3.36509
H          2.41744        30.53748        -1.94986
H          6.10748         3.73839        -3.30063
H          4.91618        30.45622        -2.15680
H          8.52025         3.69214        -3.24039
H          7.38299        30.32606        -2.40279
H         10.94405         3.74844        -3.39312
H          9.82617        30.12908        -2.74005
H         13.56567         3.83526        -3.49143
H         12.17414        30.06716        -2.91058
H         15.97651         3.85470        -3.51010
H         14.71859        30.37939        -2.70386
H         18.36917         4.06579        -3.81821
H         17.24084        30.40267        -2.79782
H         20.45853         5.32769        -3.50482
H         21.76934         7.13544        -2.31930
H         22.00463         8.64407        -0.39368
H         22.02610         9.91732         1.34407
H         21.95483        11.99990         2.71768
H         21.86838        14.76917         3.37508
H         21.93291        16.99903         2.28820
H         22.00429        18.57741         1.25608
H         22.03254        20.92797         0.70146
H         21.93974        22.96028         0.10455
H         21.92200        25.20725        -0.48963
H         21.97832        27.16891        -1.20190
H         21.87661        29.36857        -2.33793
H         19.69528        30.45330        -2.82671
