         600
 CSIRO Nanostructure Databank - Neutral Graphene Oxide Data Set
C         23.34809        27.51990         2.60159
C         23.29829        28.87477         2.34586
C         23.26943        31.81696         1.95142
C         23.17699        33.12237         1.57562
C         23.14596        36.04732         1.10550
C         23.10110        37.39433         0.87925
C         22.99993        40.24414         0.05431
C         22.97863        41.63108         0.02135
C         22.95969        44.56322         0.15484
C         22.91725        45.92193         0.15544
C         25.83462        24.69180         2.49505
C         24.64842        25.38368         2.65724
C         25.66295        27.46128         1.83077
C         24.53075        26.77390         2.34781
C         25.64975        28.85134         1.68490
C         24.45259        29.59602         1.91105
C         25.58637        31.69274         1.14238
C         24.41826        31.00826         1.65370
C         25.54155        33.07490         0.80689
C         24.20026        33.75655         0.67131
C         25.49937        35.93856         0.42180
C         24.28553        35.26455         0.75163
C         25.50072        37.36356         0.25594
C         24.16953        38.03141         0.03218
C         25.43325        40.24009         0.07379
C         24.21114        39.53673         0.10172
C         25.42174        41.66778         0.00411
C         24.17986        42.37115        -0.00102
C         25.39068        44.49258        -0.25112
C         24.17545        43.81472        -0.08187
C         25.39238        45.93690        -0.50584
C         24.06169        46.70974        -0.30448
C         25.37067        48.77918        -0.09856
C         24.18162        48.13285         0.01931
C         28.37985        23.24161         2.10209
C         28.21519        24.60289         1.70055
C         26.97575        25.27351         1.86990
C         28.01349        27.34080         0.75224
C         26.80978        26.64573         1.36275
C         28.06181        28.82152         0.83911
C         26.96133        29.58308         1.56254
C         27.99002        31.69431         0.71738
C         26.82531        31.00525         1.07553
C         27.95557        33.07285         0.42872
C         26.73044        33.78097         0.50508
C         27.95286        35.95032         0.17801
C         26.73032        35.22423         0.32861
C         27.94642        37.38070         0.12443
C         26.69774        38.08386         0.14696
C         27.90603        40.24025         0.05763
C         26.69732        39.53310         0.08006
C         27.90465        41.68900        -0.01028
C         26.65647        42.38865        -0.06763
C         27.87678        44.53100        -0.26148
C         26.64544        43.80427        -0.19253
C         27.87876        45.96496        -0.34123
C         26.64846        46.68720        -0.39409
C         27.86414        48.81736        -0.40055
C         26.62161        48.09201        -0.34616
C         27.89000        50.23486        -0.44793
C         30.76142        23.25533         1.51336
C         29.58683        22.59965         2.00636
C         30.65972        24.59487         1.07760
C         29.37822        25.28057         1.15119
C         30.45150        27.27651         0.13505
C         29.28826        26.60280         0.72042
C         30.40712        28.80186         0.01575
C         29.21391        29.48512         0.55931
C         30.54739        31.64603         0.48044
C         29.27427        30.94876         0.75682
C         30.49808        33.08936         0.11430
C         29.19125        33.79843         0.06957
C         30.42354        35.96639         0.01480
C         29.20165        35.27084         0.12109
C         30.41187        37.39751        -0.06055
C         29.17150        38.09679         0.00899
C         30.38876        40.23308        -0.01513
C         29.17031        39.53220         0.01738
C         30.39726        41.70494         0.31400
C         29.11143        42.41105        -0.03402
C         30.35777        44.54915        -0.23417
C         29.11421        43.82651        -0.17156
C         30.35091        45.95875        -0.33700
C         29.10975        46.67740        -0.36481
C         30.33784        48.82383        -0.53532
C         29.10106        48.10612        -0.43844
C         30.32756        50.25314        -0.52579
C         29.08236        50.92685        -0.48879
C         33.37797        20.56786         1.85898
C         32.16597        21.22378         1.90220
C         33.19028        23.24037         0.98133
C         32.03141        22.56807         1.46610
C         33.09566        24.60156         0.54777
C         31.83611        25.27571         0.59366
C         32.91326        27.34718        -0.26382
C         31.76613        26.62582         0.16041
C         32.84686        28.76868        -0.44528
C         31.69509        29.51006        -0.10399
C         32.92491        31.66320        -0.26125
C         31.74493        30.91573         0.01556
C         32.96825        33.09107        -0.10434
C         31.76671        33.83795         0.43965
C         32.88070        35.97948        -0.13403
C         31.69854        35.28836         0.03102
C         32.87935        37.41040        -0.27132
C         31.63622        38.11508        -0.18606
C         32.86248        40.26180        -0.26889
C         31.62484        39.54295        -0.15518
C         32.85477        41.70120        -0.26577
C         31.63689        42.43007        -0.13588
C         32.84311        44.55849        -0.42216
C         31.61180        43.82800        -0.26429
C         32.84095        45.97514        -0.48459
C         31.58552        46.69135        -0.44948
C         32.82309        48.80536        -0.86990
C         31.56493        48.08845        -0.57636
C         32.80430        50.32190        -0.90412
C         31.56040        51.00912        -0.50693
C         32.84802        53.05604        -0.05235
C         31.62712        52.33637        -0.10749
C         35.96431        19.17066         1.73619
C         35.81410        20.51431         1.29896
C         34.54798        21.20561         1.37028
C         35.60717        23.23397         0.43433
C         34.44686        22.55505         0.92876
C         35.51381        24.60393         0.02854
C         34.25860        25.28849         0.07501
C         35.36915        27.34126        -0.71441
C         34.18319        26.65919        -0.33207
C         35.33178        28.76249        -1.11022
C         34.01693        29.52376        -0.92156
C         35.30586        31.67752        -0.87665
C         34.09191        30.97908        -0.70135
C         35.33645        33.10099        -0.69741
C         34.13946        33.79226        -0.33130
C         35.37898        35.99081        -0.49250
C         34.19303        35.25312         0.07143
C         35.34603        37.39755        -0.57457
C         34.09791        38.11938        -0.41835
C         35.30774        40.27126        -0.66114
C         34.08352        39.54924        -0.45051
C         35.28363        41.67633        -0.61531
C         34.07964        42.40365        -0.41687
C         35.30135        44.57142        -0.44845
C         34.08660        43.85156        -0.43821
C         35.32050        45.98396        -0.46085
C         34.07773        46.69207        -0.50970
C         35.29770        48.80677        -0.34066
C         34.10368        48.11477        -0.60296
C         35.38653        50.28132        -0.46564
C         34.10276        51.05631        -0.76582
C         35.32974        53.16479        -0.27455
C         34.06391        52.46774        -0.36007
C         35.39218        54.54089        -0.43692
C         38.30710        19.12445         1.04433
C         37.16582        18.50419         1.62102
C         38.19261        20.47957         0.62318
C         36.95117        21.17944         0.76307
C         38.00267        23.22131        -0.16509
C         36.84890        22.54724         0.34740
C         37.92631        24.59526        -0.51895
C         36.68429        25.29041        -0.40383
C         37.82764        27.39204        -1.05626
C         36.61663        26.67912        -0.72842
C         37.81151        28.83620        -1.12548
C         36.57770        29.54238        -1.08945
C         37.77170        31.68615        -1.14059
C         36.54411        30.95580        -1.08203
C         37.76957        33.11652        -1.07276
C         36.55498        33.82645        -0.83597
C         37.79030        35.97598        -0.97215
C         36.56650        35.26600        -0.76601
C         37.78617        37.40770        -0.94981
C         36.55958        38.11930        -0.81338
C         37.77728        40.23957        -1.01747
C         36.55550        39.55221        -0.85554
C         37.79585        41.70931        -1.09371
C         36.51525        42.45037        -0.86126
C         37.83202        44.58524        -0.55064
C         36.58095        43.81619        -0.21344
C         37.83251        45.99169        -0.50961
C         36.56014        46.70572        -0.32121
C         37.56362        48.80253         0.73677
C         36.49728        48.08819        -0.04722
C         37.74017        50.34140         0.67515
C         36.53312        51.04142         0.08638
C         37.79009        53.17647         0.42913
C         36.53907        52.41132         0.02462
C         37.81465        54.58892        -0.12265
C         36.63253        55.22299        -0.44243
C         40.90393        16.38566         1.08248
C         39.73002        17.07074         1.30667
C         40.62284        19.04659         0.17062
C         39.54922        18.41044         0.85382
C         40.50610        20.41578        -0.23307
C         39.31617        21.14003         0.02731
C         40.35158        23.18420        -0.92271
C         39.22967        22.51892        -0.33975
C         40.28076        24.55882        -1.24982
C         39.08479        25.26839        -1.02044
C         40.26671        27.40405        -1.46437
C         39.03144        26.69322        -1.23377
C         40.27132        28.82914        -1.34721
C         39.02773        29.54987        -1.20903
C         40.22970        31.70922        -1.27947
C         39.00874        30.98153        -1.21118
C         40.21340        33.10227        -1.34076
C         38.99602        33.83001        -1.20051
C         40.25489        35.97843        -1.16756
C         39.01319        35.26300        -1.14025
C         40.25578        37.40490        -1.09256
C         39.02196        38.12060        -1.04024
C         40.26709        40.26035        -1.09714
C         39.02016        39.54592        -1.04840
C         40.27793        41.71521        -0.97835
C         39.06335        42.43040        -0.88494
C         40.28880        44.53880        -0.60806
C         39.04979        43.84404        -0.71310
C         40.30064        45.96070        -0.48823
C         39.07955        46.68797        -0.65190
C         40.27413        48.82323        -0.31002
C         39.21551        48.11840        -0.86617
C         40.25013        50.26310        -0.13079
C         39.03737        50.97720         0.11097
C         40.27374        53.09814        -0.06317
C         39.05595        52.38561         0.10711
C         40.29092        54.54420        -0.12297
C         39.07938        55.28572        -0.16524
C         40.32998        57.37447        -0.32653
C         39.12785        56.70094        -0.27098
C         43.18218        16.28407         0.08181
C         41.97291        16.98515         0.35873
C         42.87371        18.91733        -0.87253
C         41.82636        18.31981        -0.10363
C         42.72116        20.26934        -1.30544
C         41.58383        21.04998        -0.93242
C         42.61997        23.06672        -1.94849
C         41.52820        22.43222        -1.25159
C         42.73019        24.51845        -2.00949
C         41.39884        25.24405        -2.01857
C         42.71376        27.38830        -1.69331
C         41.47210        26.71059        -1.69154
C         42.72151        28.80959        -1.48432
C         41.49708        29.51142        -1.36261
C         42.77554        31.65728        -1.40587
C         41.51141        30.96747        -0.99749
C         42.78015        33.10642        -1.61805
C         41.46254        33.85475        -1.58392
C         42.73181        35.97233        -1.22499
C         41.49353        35.29483        -1.30430
C         42.73949        37.39622        -1.09175
C         41.49076        38.11185        -1.10348
C         42.76509        40.23302        -1.23871
C         41.47272        39.53509        -1.13083
C         42.77729        41.74464        -1.08567
C         41.49878        42.42726        -0.87188
C         42.76035        44.52638        -0.49803
C         41.51602        43.82248        -0.63755
C         42.75218        45.94324        -0.31400
C         41.52193        46.64477        -0.28203
C         42.76293        48.81967        -0.09081
C         41.48009        48.07276         0.19470
C         42.75425        50.23623        -0.12732
C         41.49480        50.96344        -0.11223
C         42.76088        53.09419        -0.12006
C         41.50843        52.38288        -0.10302
C         42.77395        54.52073        -0.16012
C         41.53448        55.23806        -0.19415
C         42.80076        57.34552        -0.34763
C         41.55231        56.65984        -0.29010
C         44.19211        16.86550        -0.65279
C         45.07860        18.79480        -2.00238
C         44.06102        18.18475        -1.17689
C         44.79036        20.03424        -2.57608
C         43.68198        20.83604        -2.18132
C         45.43649        23.31227        -2.74335
C         43.55808        22.20826        -2.53514
C         45.25586        24.58404        -2.18463
C         43.94532        25.22926        -2.06137
C         45.17213        27.37283        -1.61016
C         43.95336        26.66967        -1.81478
C         45.18099        28.80258        -1.42889
C         43.96620        29.51407        -1.40253
C         45.22536        31.68032        -1.30134
C         43.97291        30.96279        -1.36213
C         45.22807        33.10512        -1.20531
C         44.01705        33.84278        -1.34083
C         45.21279        35.93859        -0.95434
C         43.98595        35.24384        -1.20904
C         45.20352        37.35185        -0.78311
C         43.97251        38.08458        -0.90589
C         45.16029        40.22382        -0.56262
C         43.99932        39.51335        -0.88975
C         45.19918        41.65819        -0.48751
C         44.01541        42.40254        -0.65427
C         45.22443        44.50927        -0.29328
C         43.99154        43.81056        -0.45989
C         45.21882        45.93916        -0.25174
C         43.99301        46.65572        -0.22919
C         45.20073        48.82051        -0.29739
C         43.97758        48.10509        -0.18351
C         45.22511        50.22659        -0.18380
C         43.98781        50.94302        -0.11420
C         45.21747        53.10042         0.01825
C         43.99199        52.38622        -0.07318
C         45.24111        54.50421        -0.05868
C         44.00922        55.23103        -0.18432
C         43.98535        56.65600        -0.29113
C         47.56677        18.88004        -2.35583
C         46.39249        18.19638        -2.21044
C         47.72302        20.32951        -2.33759
C         46.69225        21.14531        -2.81979
C         47.75456        23.16195        -1.96169
C         46.61849        22.53747        -2.54451
C         47.69239        24.56747        -1.68530
C         46.46122        25.26321        -1.77022
C         47.62709        27.37178        -1.24599
C         46.42477        26.67442        -1.52828
C         47.63512        28.80391        -1.15081
C         46.42253        29.51708        -1.27032
C         47.66858        31.65597        -1.01107
C         46.43751        30.95355        -1.19614
C         47.67446        33.07891        -0.89655
C         46.45364        33.80249        -0.98326
C         47.66143        35.92153        -0.57947
C         46.44250        35.22514        -0.84310
C         47.64097        37.33486        -0.37807
C         46.40964        38.02441        -0.46457
C         47.65359        40.20636         0.06862
C         46.34637        39.45802        -0.15160
C         47.66082        41.66501        -0.11107
C         46.44368        42.35856        -0.25210
C         47.68920        44.49803        -0.15137
C         46.45076        43.79331        -0.24728
C         47.69134        45.93321        -0.20593
C         46.46909        46.62380        -0.29082
C         47.76995        48.82442        -0.39804
C         46.44564        48.07330        -0.51201
C         47.69728        50.25431        -0.06950
C         46.48719        50.92094        -0.04733
C         47.76340        53.08460         0.13286
C         46.46887        52.35383         0.41993
C         47.70531        54.51370         0.02852
C         46.51671        55.18615        -0.02636
C         50.03793        20.25681        -1.32629
C         48.89787        20.98551        -1.81733
C         50.22857        23.10240        -1.49238
C         48.91933        22.39453        -1.71395
C         50.08802        24.52777        -1.03824
C         48.88752        25.24199        -1.25319
C         50.05303        27.34307        -0.74765
C         48.85130        26.65362        -1.06315
C         50.07723        28.77754        -0.74180
C         48.87200        29.50522        -0.95006
C         50.13760        31.62282        -0.76471
C         48.89448        30.92869        -0.90396
C         50.13869        33.06830        -0.64212
C         48.90312        33.78409        -0.67979
C         50.12290        35.90438        -0.29369
C         48.89618        35.19859        -0.50881
C         50.11832        37.32957        -0.17090
C         48.88443        38.05119        -0.17415
C         50.13500        40.18045        -0.00778
C         48.91057        39.45832        -0.05889
C         50.12890        41.62241         0.06155
C         48.90433        42.35245        -0.03830
C         50.14965        44.48878         0.11086
C         48.91317        43.78349        -0.04378
C         50.15549        45.91987         0.13683
C         48.94550        46.64606        -0.07512
C         50.15432        48.76464         0.30838
C         48.97384        48.06010        -0.04514
C         50.11939        50.20297         0.41479
C         48.94532        50.92574         0.22417
C         50.26624        53.00628         0.01601
C         48.96007        52.38033         0.17082
C         51.12319        20.89313        -0.75468
C         52.35963        22.98848        -0.16588
C         51.24248        22.30807        -0.70907
C         52.40019        24.43317        -0.14030
C         51.23410        25.18473        -0.54350
C         52.43120        27.30002        -0.09586
C         51.23186        26.60923        -0.44956
C         52.49828        28.72068        -0.20579
C         51.30750        29.46623        -0.56741
C         52.63919        31.57768        -0.67513
C         51.33806        30.87883        -0.67897
C         52.62805        33.06541        -0.48667
C         51.33593        33.77765        -0.41196
C         52.60244        35.91108        -0.12543
C         51.35374        35.18610        -0.24125
C         52.58265        37.30841        -0.08678
C         51.35121        38.03881        -0.06740
C         52.60343        40.18364         0.17751
C         51.36221        39.46514         0.00166
C         52.58169        41.61097         0.33625
C         51.35648        42.32927         0.21810
C         52.59281        44.46952         0.45579
C         51.36158        43.76390         0.26785
C         52.60159        45.89486         0.50432
C         51.37763        46.62643         0.36245
C         52.61363        48.75910         0.69097
C         51.37298        48.04675         0.47393
C         52.62192        50.16525         0.83007
C         51.33368        50.95181         0.91383
C         51.39975        52.32559         0.28376
C         54.60490        22.94489         0.80247
C         53.49061        22.28375         0.35186
C         54.67901        24.37156         0.81793
C         53.53714        25.11287         0.35433
C         54.71507        27.26723         0.76729
C         53.57121        26.56274         0.33337
C         54.82314        28.67465         0.58671
C         53.71188        29.38173         0.06616
C         55.02790        31.53560         0.23862
C         53.92186        30.77610        -0.46378
C         55.06706        32.95063         0.21167
C         53.77050        33.72006         0.25301
C         55.08304        35.84238        -0.00712
C         53.87279        35.19980        -0.03732
C         55.15636        37.30708        -0.20169
C         53.84637        38.06418        -0.16729
C         55.03911        40.14174         0.60606
C         53.82640        39.49533         0.19354
C         55.00828        41.58126         0.81078
C         53.80249        42.30905         0.57669
C         55.03485        44.44395         0.81683
C         53.80960        43.73990         0.62449
C         55.04708        45.87330         0.83560
C         53.83293        46.59770         0.69195
C         55.07384        48.72875         0.93808
C         53.84159        48.03108         0.76291
C         55.04196        50.13323         1.07013
C         53.84002        50.82809         1.03815
C         57.02802        24.38641         1.68075
C         55.83808        25.04844         1.29992
C         57.12678        27.26103         1.64899
C         55.80431        26.51633         1.40316
C         57.22538        28.67357         1.24291
C         56.08126        29.36816         0.82354
C         57.39139        31.48339         0.89199
C         56.16735        30.79830         0.62242
C         57.44220        32.90617         0.76790
C         56.26739        33.63483         0.43120
C         57.51484        35.81561         0.71440
C         56.39530        35.08404         0.00352
C         57.52444        37.21836         0.78523
C         56.46389        38.05893         0.08647
C         57.36652        40.01921         1.43050
C         56.22054        39.39942         0.77559
C         57.37883        41.57674         1.56096
C         56.19401        42.29810         1.09768
C         57.48954        44.40496         1.22782
C         56.24026        43.71246         1.03684
C         57.50515        45.83171         1.16938
C         56.28985        46.57087         1.00562
C         57.57012        48.65557         1.13641
C         56.31703        47.99017         1.02124
C         58.22987        25.05652         1.89624
C         59.58498        27.12984         1.72835
C         58.34912        26.45740         1.76080
C         59.65080        28.51415         1.57646
C         58.50499        29.30811         1.33253
C         59.78163        31.46296         1.36862
C         58.57943        30.74866         1.19402
C         59.81120        32.85497         1.32792
C         58.65441        33.60705         1.06312
C         59.73937        35.74738         1.71497
C         58.63929        35.06306         1.15421
C         59.74564        37.12640         1.80375
C         58.65523        37.88648         1.32893
C         59.80928        40.06489         1.73463
C         58.66463        39.33228         1.46473
C         59.82396        41.48008         1.78120
C         58.68094        42.25116         1.59930
C         59.92202        44.41833         1.53758
C         58.70377        43.69115         1.44212
C         59.94384        45.79413         1.46434
C         58.74030        46.52992         1.29815
C         58.74637        47.95093         1.25953
O         52.85524        32.51021        -1.81397
O         32.72918        49.55304        -2.13978
O         45.65967        20.53939        -3.56159
O         30.13025        27.95158        -1.13726
O         30.16299        31.37014         1.89506
O         46.81960        39.77655         1.20823
O         56.16270        27.02762         2.73109
O         35.04887        50.74905        -1.82488
O         26.96761        26.77434        -0.10683
O         34.46987        29.07834        -2.25080
O         54.55775        37.78016        -1.45456
O         29.88779        33.30863        -1.17974
O         44.40653        22.74687        -3.51636
O         24.55199        46.34778        -1.63026
O         42.09364        33.50896        -2.87402
O         47.20255        48.48447        -1.70678
O         57.07595        40.70182         2.69174
O         38.09800        48.20536         1.66592
O         42.88533        41.10113        -2.41378
O         37.01705        42.31969        -2.21705
O         54.47779        30.53388        -1.80025
H         54.27200        31.33847        -2.33313
O         23.74162        33.48806        -0.71898
H         23.73847        32.51405        -0.83848
O         46.39364        52.27293         1.89828
H         46.29321        53.19074         2.23034
O         53.34325        33.62900         1.65819
H         54.05320        34.00947         2.21738
O         37.77005        53.36599         1.87560
H         37.79373        52.46014         2.27729
O         27.44158        29.68396         2.95423
H         28.22944        30.27164         2.95603
O         36.64873        43.53411         1.22686
H         36.68108        44.39312         1.69926
O         51.11862        51.17279         2.35333
H         50.25749        51.63337         2.44971
O         31.89357        33.84430         1.90277
H         31.64527        32.95205         2.23532
O         57.05564        38.41123        -1.19896
H         56.31077        38.43009        -1.84693
O         40.96652        25.19225        -3.43248
H         40.97707        24.25052        -3.70737
O         37.77842        50.68177         2.10007
H         38.25983        49.93716         2.53855
O         50.82499        23.21016        -2.85469
H         50.93747        22.29400        -3.18830
O         56.79055        35.02230        -1.40929
H         57.69925        34.65588        -1.44705
O         41.37733        48.01066         1.66645
H         42.14260        47.49077         1.99155
O         23.79118        37.72281        -1.36359
H         23.76826        36.74432        -1.44592
O         38.33437        48.78088        -1.68034
H         37.71742        48.14904        -2.10211
O         30.46246        41.75397         1.79749
H         29.68011        41.26812         2.13640
O         34.40702        35.23492         1.52631
H         33.61334        34.80007         1.92552
O         41.57769        30.98438         0.49637
H         42.31853        30.39593         0.75895
H         22.46030        27.00095         2.99134
H         22.35485        29.41087         2.51714
H         22.44316        31.37620         2.52782
H         22.26429        33.67729         1.83234
H         22.27965        35.56233         1.57697
H         22.20349        37.96537         1.15586
H         22.04952        39.69430         0.02087
H         22.00930        42.14388        -0.02810
H         22.06221        44.01382         0.47076
H         22.02123        46.45094         0.51269
H         25.87678        23.64791         2.83545
H         23.78232        24.87040         3.09994
H         25.39984        49.85526         0.12027
H         23.28885        48.67107         0.37103
H         27.51857        22.68456         2.49419
H         26.95185        50.80424        -0.46194
H         29.64288        21.55225         2.32919
H         29.05797        52.02413        -0.52818
H         33.42204        19.52773         2.20746
H         31.29476        20.67690         2.28482
H         32.81991        54.10252         0.28158
H         30.71328        52.86008         0.20453
H         35.11055        18.63573         2.17268
H         34.47785        55.10532        -0.66691
H         37.22252        17.46350         1.96685
H         36.63089        56.27673        -0.75348
H         41.01860        15.35536         1.44939
H         38.92332        16.56677         1.85571
H         40.34948        58.47170        -0.39224
H         38.19577        57.28115        -0.27981
H         43.29797        15.25662         0.45666
H         42.80153        58.44195        -0.43082
H         45.10588        16.29073        -0.85657
H         44.92637        57.21974        -0.33157
H         48.48970        18.27922        -2.37568
H         46.46469        17.10089        -2.12337
H         48.64153        55.08797        -0.01533
H         46.54224        56.28142        -0.09367
H         50.01899        19.15880        -1.34451
H         50.32366        54.03864        -0.35831
H         51.91260        20.26787        -0.31328
H         52.37431        52.81522         0.14445
H         55.45366        22.35393         1.17159
H         53.48651        21.18554         0.36756
H         55.96854        50.69800         1.23524
H         53.85268        51.91500         1.19659
H         57.04483        23.28856         1.72175
H         57.61255        49.75251         1.12220
H         59.13817        24.46787         2.09243
H         60.51351        26.55310         1.84920
H         60.64007        28.99003         1.61119
H         60.71752        30.92795         1.57783
H         60.76948        33.35858         1.51218
H         60.60316        35.18828         2.09702
H         60.60952        37.62870         2.25846
H         60.77730        39.55103         1.81530
H         60.80322        41.96675         1.88437
H         60.86775        43.88049         1.68576
H         60.89592        46.33726         1.55026
H         59.70433        48.48385         1.34437
