         600
 CSIRO Nanostructure Databank - Neutral Graphene Oxide Data Set
C         23.21824        27.32557        -1.26468
C         23.18056        28.67949        -1.31042
C         23.17477        31.63723        -0.97006
C         23.15220        33.02558        -0.82176
C         23.15673        35.93910        -1.04192
C         23.14921        37.31896        -1.05559
C         23.11939        40.24655        -0.85418
C         23.10824        41.61886        -0.73499
C         23.07501        44.53220        -0.44197
C         23.07407        45.90349        -0.38812
C         25.63783        24.50092        -0.71038
C         24.45849        25.20565        -1.05153
C         25.73027        27.28857        -1.37724
C         24.45256        26.57593        -1.25824
C         25.73901        28.78950        -1.36923
C         24.40758        29.50339        -1.39924
C         25.61003        31.62380        -0.80090
C         24.38408        30.93595        -1.01809
C         25.58008        33.04306        -0.60792
C         24.33852        33.75367        -0.69565
C         25.51410        35.93326        -0.46898
C         24.33288        35.21781        -0.71162
C         25.53599        37.35063        -0.54883
C         24.32818        38.06039        -0.79838
C         25.54183        40.20754        -0.54832
C         24.32520        39.50505        -0.74756
C         25.53286        41.63473        -0.45156
C         24.30518        42.35188        -0.51792
C         25.51222        44.48735        -0.17570
C         24.29299        43.78986        -0.37537
C         25.52030        45.92243        -0.09628
C         24.29327        46.63020        -0.25556
C         25.50492        48.72633        -0.32997
C         24.30374        48.04531        -0.31766
C         28.03421        23.04883         0.15042
C         28.02214        24.49011         0.03639
C         26.85562        25.14210        -0.51857
C         28.14452        27.33708        -0.46381
C         26.98898        26.54811        -0.93063
C         28.10520        28.77318        -0.50218
C         26.92596        29.49885        -0.84168
C         28.03534        31.62055        -0.26176
C         26.86105        30.90691        -0.66887
C         28.00127        33.06753        -0.15558
C         26.78258        33.75164        -0.33593
C         28.01788        35.94672        -0.21712
C         26.72775        35.21023         0.04232
C         28.02041        37.34984        -0.30681
C         26.77551        38.07346        -0.41058
C         28.02471        40.19506        -0.33250
C         26.78049        39.48062        -0.44229
C         28.00411        41.62340        -0.22509
C         26.76580        42.34295        -0.26743
C         27.96590        44.45990         0.11031
C         26.74870        43.75717        -0.12972
C         27.94875        45.87723         0.34665
C         26.74144        46.65058         0.08047
C         27.97198        48.83363        -0.38621
C         26.73954        48.05675        -0.14478
C         28.04187        49.78898        -1.43723
C         30.32223        23.03356         1.05260
C         29.13203        22.35174         0.53026
C         30.33952        24.56394         0.93789
C         29.18140        25.22907         0.30892
C         30.47017        27.37248         0.34649
C         29.25232        26.65186         0.06147
C         30.48010        28.78468         0.23232
C         29.27143        29.49387        -0.09389
C         30.41586        31.61671         0.49945
C         29.22192        30.90643         0.01021
C         30.42395        33.14187         0.47149
C         29.19989        33.81830         0.05681
C         30.49057        35.94011        -0.09825
C         29.23559        35.23408        -0.09474
C         30.48836        37.33821        -0.26974
C         29.26808        38.05448        -0.32667
C         30.49197        40.21258        -0.16928
C         29.25597        39.49500        -0.30883
C         30.47216        41.62539        -0.01023
C         29.22203        42.32627        -0.03532
C         30.41250        44.42684         0.42188
C         29.19222        43.73900         0.16856
C         30.37229        45.78760         0.83213
C         29.11300        46.44679         0.87955
C         30.41534        49.08741        -0.08916
C         29.14776        48.58863         0.32183
C         30.46418        50.01199        -1.17256
C         29.24282        50.38205        -1.79400
C         32.87566        20.24758         1.02582
C         31.66757        20.92470         0.99991
C         32.82993        23.05707         1.23348
C         31.62168        22.32586         1.09650
C         32.81530        24.51767         1.21707
C         31.65185        25.24264         0.95945
C         32.86854        27.39668         0.87070
C         31.67039        26.67715         0.72062
C         32.90443        28.80579         0.72259
C         31.69997        29.51285         0.44806
C         32.90715        31.66791         0.65240
C         31.70878        30.92990         0.48676
C         32.92268        33.10804         0.57335
C         31.71747        33.83816         0.37282
C         32.97750        35.93580         0.18763
C         31.73059        35.22228         0.11305
C         33.00960        37.34308         0.00116
C         31.78823        38.05985        -0.53953
C         32.93880        40.23375        -0.03205
C         31.74319        39.52794        -0.17253
C         32.94607        41.65187         0.14938
C         31.69872        42.33868         0.15612
C         32.87168        44.48802         0.50281
C         31.66464        43.75290         0.36107
C         32.83946        45.90525         0.72003
C         31.60218        46.46699         1.05259
C         32.88413        48.81846        -0.14843
C         31.63403        48.58086         0.44776
C         32.93650        49.89643        -1.07926
C         31.76075        50.51034        -1.57058
C         33.09675        52.30099        -2.58792
C         31.87861        51.65119        -2.42479
C         35.42168        18.83544         1.10858
C         35.36871        20.23860         1.11409
C         34.09304        20.94838         1.17120
C         35.35106        23.08387         1.58743
C         34.06291        22.35456         1.28397
C         35.28594        24.54737         1.24207
C         34.09621        25.21223         1.23449
C         35.36519        27.41841         1.26687
C         34.05795        26.70149         1.46958
C         35.33890        28.83430         1.16850
C         34.12231        29.54009         0.91996
C         35.36735        31.68120         0.97109
C         34.13673        30.95830         0.83398
C         35.38654        33.10248         0.86216
C         34.16631        33.81123         0.63473
C         35.41872        35.94886         0.59969
C         34.18506        35.23368         0.48199
C         35.43310        37.36476         0.44417
C         34.21769        38.03928         0.12641
C         35.50110        40.26044         0.16876
C         34.22640        39.50166        -0.10480
C         35.42674        41.70086         0.48029
C         34.16601        42.38268         0.37375
C         35.29378        44.55452         0.83164
C         34.11746        43.79782         0.53136
C         35.30029        45.96223         0.78273
C         34.06287        46.69095         0.60043
C         35.36146        48.67708        -0.07588
C         34.08295        48.03862         0.17835
C         35.42874        49.90417        -0.77510
C         34.26993        50.32812        -1.63506
C         35.50173        52.53714        -1.97962
C         34.28794        51.77848        -2.05281
C         35.57689        53.86476        -2.50598
C         37.81747        18.84663         0.63811
C         36.61213        18.15393         0.88526
C         37.81118        20.27091         0.70944
C         36.58885        20.97506         0.97084
C         37.80411        23.11484         0.96171
C         36.59303        22.38757         1.08502
C         37.82699        24.53502         1.09579
C         36.54801        25.28486         0.87810
C         37.81856        27.40218         1.52754
C         36.57749        26.72648         1.31364
C         37.73344        28.83515         1.67681
C         36.55611        29.54957         1.31588
C         37.80668        31.69151         1.39300
C         36.57941        30.97657         1.22691
C         37.83653        33.11531         1.26892
C         36.62483        33.81602         0.99229
C         37.86033        35.95007         1.02835
C         36.63431        35.23968         0.87776
C         37.86643        37.37803         0.94006
C         36.66453        38.09513         0.64487
C         37.86416        40.23841         0.94243
C         36.69138        39.51223         0.61172
C         37.84043        41.67752         1.05989
C         36.58023        42.36198         0.90941
C         37.78749        44.57921         1.41090
C         36.49148        43.79846         1.22155
C         37.74788        46.01786         1.12865
C         36.55586        46.69041         0.84823
C         37.78503        48.78621         0.25885
C         36.56656        48.07563         0.40426
C         37.83033        50.07771        -0.30069
C         36.63344        50.65329        -0.82698
C         37.81498        52.88146        -1.01989
C         36.65508        51.97778        -1.37141
C         37.92779        54.11379        -1.88222
C         36.76295        54.59189        -2.49899
C         40.24165        16.07651        -0.16609
C         39.08420        16.73216         0.19374
C         40.22997        18.89406         0.07461
C         39.04246        18.14847         0.31296
C         40.23317        20.31950         0.20997
C         39.02575        21.00375         0.54015
C         40.24216        23.15417         0.54891
C         39.03084        22.41962         0.69368
C         40.26111        24.56326         0.78230
C         39.03872        25.25688         1.09620
C         40.35331        27.30076         1.45125
C         39.06272        26.67113         1.41322
C         40.57761        28.57515         2.03664
C         38.79130        29.63613         2.17461
C         40.24406        31.68177         2.10074
C         38.95538        30.99319         1.86252
C         40.29590        33.13180         1.77209
C         39.07591        33.82028         1.44325
C         40.30956        35.95800         1.37146
C         39.07859        35.23935         1.28684
C         40.31179        37.38364         1.28897
C         39.08551        38.09753         1.12064
C         40.30845        40.24558         1.29022
C         39.08474        39.52402         1.13246
C         40.29916        41.67157         1.36336
C         39.05014        42.39120         1.30277
C         40.26891        44.55169         1.33612
C         39.06786        43.83704         1.33879
C         40.30039        45.96652         1.15398
C         39.03113        46.72948         1.14269
C         40.31668        48.66552         0.08100
C         39.04418        48.17110         0.72419
C         40.32008        50.16210        -0.09353
C         39.09317        50.80641        -0.41195
C         40.34971        52.83861        -0.97509
C         39.11620        52.14822        -0.82616
C         40.37972        54.17792        -1.50489
C         39.17445        54.82648        -1.93379
C         40.47257        56.82844        -2.48478
C         39.25864        56.15067        -2.42941
C         42.62743        16.14073        -0.83205
C         41.43320        16.80230        -0.43388
C         42.62545        18.95881        -0.56850
C         41.43114        18.21931        -0.30487
C         42.62882        20.38298        -0.40964
C         41.43362        21.05809        -0.00994
C         42.64673        23.21017        -0.04259
C         41.44267        22.47456         0.16732
C         42.66459        24.62357         0.16985
C         41.47623        25.28524         0.59989
C         42.72222        27.43077         0.73507
C         41.51612        26.67933         0.89881
C         42.76005        28.82905         1.04433
C         41.63846        29.42248         1.69646
C         42.87945        31.61156         1.87814
C         41.60059        30.85374         2.07298
C         42.82682        33.14101         1.85829
C         41.51866        33.83292         1.75029
C         42.77546        35.96655         1.45290
C         41.53683        35.24383         1.51300
C         42.77407        37.38737         1.40935
C         41.54050        38.10270         1.36818
C         42.77808        40.23971         1.44796
C         41.54052        39.52986         1.36388
C         42.76123        41.67793         1.48030
C         41.54281        42.36577         1.47308
C         42.79578        44.56462         1.37183
C         41.53352        43.84595         1.75958
C         42.77342        45.96039         1.20816
C         41.51910        46.66303         1.04667
C         42.75196        48.76077         0.65361
C         41.56067        48.05907         0.68581
C         42.74521        50.22238         0.40309
C         41.51960        50.87311        -0.10523
C         42.83573        52.87919        -0.81018
C         41.56889        52.21120        -0.58677
C         42.85453        54.14172        -1.41025
C         41.63096        54.82713        -1.68902
C         42.94023        56.88565        -2.14022
C         41.67064        56.18432        -2.13902
C         43.76996        16.85788        -1.10475
C         44.99613        19.03446        -1.27178
C         43.80171        18.27666        -0.98446
C         45.00413        20.44743        -1.08840
C         43.81981        21.12346        -0.64965
C         45.03412        23.28460        -0.67999
C         43.83305        22.53876        -0.45948
C         45.05349        24.69752        -0.45451
C         43.86788        25.36736        -0.01970
C         45.10429        27.51217         0.06120
C         43.89746        26.77358         0.24471
C         45.13780        28.91134         0.37035
C         43.97322        29.57611         0.86084
C         45.21796        31.69443         1.02314
C         44.03376        30.95193         1.23157
C         45.23469        33.12931         1.17891
C         44.03939        33.85023         1.40622
C         45.25128        35.98885         1.25392
C         44.02160        35.26465         1.37409
C         45.25664        37.40345         1.33322
C         44.01207        38.11369         1.42322
C         45.28408        40.25977         1.77813
C         43.99901        39.52412         1.48980
C         45.22066        41.69993         1.34519
C         44.03216        42.39636         1.38476
C         45.22490        44.57874         1.22570
C         44.02055        43.85441         1.29448
C         45.23152        45.99948         1.25438
C         43.99707        46.69412         1.15311
C         45.24272        48.78849         0.87203
C         44.01001        48.10197         0.93056
C         45.29410        50.09473         0.12161
C         44.04742        50.93408         0.22274
C         45.32523        52.81701        -0.75881
C         44.08336        52.22625        -0.49634
C         45.39854        54.10719        -1.39074
C         44.13958        54.71932        -1.96885
C         44.10914        56.22923        -1.96916
C         47.31900        19.13231        -2.00528
C         46.17703        18.40498        -1.73786
C         47.36215        20.53383        -1.81060
C         46.19446        21.19741        -1.34242
C         47.41585        23.35534        -1.32155
C         46.21119        22.61481        -1.11924
C         47.44087        24.75885        -1.07236
C         46.25935        25.43566        -0.64852
C         47.49831        27.57950        -0.58506
C         46.28733        26.84954        -0.40155
C         47.54219        28.98311        -0.23798
C         46.36334        29.63544         0.24928
C         47.63107        31.73777         0.46692
C         46.40179        31.02253         0.56871
C         47.66959        33.14545         0.71090
C         46.45891        33.84950         0.98675
C         47.70663        35.98014         0.95118
C         46.47321        35.26771         1.07792
C         47.71688        37.40363         1.01341
C         46.49946        38.12548         1.22749
C         47.75288        40.23623         1.15651
C         46.52601        39.53384         1.31054
C         47.77004        41.68016         1.15300
C         46.48231        42.36492         1.00182
C         47.76302        44.56087         1.26477
C         46.49648        43.88779         0.97918
C         47.71262        45.98835         1.60932
C         46.45521        46.72835         1.34589
C         47.71037        48.90848         1.38223
C         46.45761        48.11816         1.18573
C         47.71658        50.36926         0.94561
C         46.52415        50.93522         0.30561
C         47.82998        52.86036        -0.48903
C         46.56079        52.18341        -0.29461
C         47.83140        54.09397        -1.11480
C         46.62935        54.70812        -1.55858
C         49.73341        20.68290        -2.57198
C         48.57050        21.29083        -2.05778
C         49.80485        23.42951        -1.96401
C         48.59618        22.68849        -1.77586
C         49.81836        24.82821        -1.70943
C         48.65788        25.49304        -1.27218
C         49.92065        27.61909        -1.12056
C         48.68042        26.91624        -1.02736
C         49.93997        29.11860        -1.02754
C         48.74613        29.70747        -0.33371
C         50.08633        31.74999         0.09080
C         48.81717        31.05865         0.06976
C         50.12190        33.13838         0.36690
C         48.90475        33.84759         0.61828
C         50.15660        35.97967         0.65561
C         48.92431        35.26529         0.76711
C         50.14912        37.37777         0.64848
C         48.94682        38.10942         0.85131
C         50.21122        40.26348         0.78494
C         48.96183        39.53617         0.92289
C         50.21785        41.71266         0.96068
C         48.96194        42.40974         1.10058
C         50.22569        44.58559         1.26225
C         48.96645        43.86282         1.21795
C         50.26066        45.99819         1.33022
C         49.02754        46.74689         1.61505
C         50.21776        48.88774         1.31157
C         49.02609        48.21219         1.41279
C         50.20984        50.41717         1.36824
C         49.00370        51.01134         0.68585
C         50.34631        52.71611        -0.39014
C         49.06884        52.19349        -0.06153
C         50.91360        21.40111        -2.73321
C         52.26933        23.47477        -2.40918
C         50.99184        22.76213        -2.40134
C         52.31454        24.85163        -2.12567
C         51.02801        25.62731        -2.12181
C         52.38285        27.59993        -1.25662
C         51.11373        26.96618        -1.44552
C         52.42066        28.91867        -0.70325
C         51.25589        29.66849        -0.53545
C         52.57698        31.67662         0.08723
C         51.29889        31.02420        -0.10513
C         52.60463        33.11537         0.30425
C         51.37953        33.83771         0.38367
C         52.64494        35.93495         0.57427
C         51.41013        35.25065         0.53075
C         52.64138        37.40916         0.90875
C         51.42213        38.08838         0.27531
C         52.65686        40.25494         0.36009
C         51.38417        39.56377         0.54979
C         52.66060        41.74729         0.59009
C         51.41358        42.43385         0.95691
C         52.67406        44.58360         1.07325
C         51.45343        43.86728         1.12967
C         52.69640        46.00134         1.05238
C         51.47183        46.72217         1.17976
C         52.71251        48.84527         1.16640
C         51.48922        48.16747         1.23780
C         52.75252        50.34172         1.45992
C         51.51159        50.99831         0.89909
C         51.52906        52.08208         0.05015
C         54.69339        23.45140        -2.59226
C         53.48551        22.78089        -2.61701
C         54.75975        24.82780        -2.28241
C         53.55497        25.53258        -1.99916
C         54.86745        27.54712        -1.34923
C         53.60321        26.90417        -1.53960
C         54.94550        28.86428        -0.81726
C         53.71678        29.44587        -0.15550
C         55.05915        31.56300         0.22784
C         53.74955        30.94484        -0.03580
C         55.09554        33.06808         0.45047
C         53.82847        33.81236         0.38477
C         55.14322        35.92853         0.48615
C         53.86333        35.23080         0.47224
C         55.15154        37.39119         0.51097
C         53.94088        38.11244         0.57419
C         55.15445        40.24599         0.39081
C         53.93694        39.51799         0.46672
C         55.18865        41.67230         0.52843
C         53.95912        42.36614         0.93925
C         55.20711        44.57221         0.79249
C         53.96340        43.86775         1.11707
C         55.17094        45.99808         0.72967
C         53.94125        46.70916         0.91542
C         55.16312        48.84602         0.71881
C         53.94232        48.13433         0.94343
C         55.13071        50.29616         0.69698
C         54.02283        50.99862         1.00166
C         57.22995        24.90150        -2.66566
C         56.03084        25.52502        -2.24453
C         57.33794        27.48872        -1.60825
C         56.07826        26.85773        -1.75432
C         57.41941        28.78839        -0.93297
C         56.18244        29.54627        -0.68504
C         57.51028        31.63696        -0.32527
C         56.28691        30.89024        -0.24042
C         57.52756        33.07782        -0.09673
C         56.35819        33.78881         0.22534
C         57.65517        35.92426         0.54854
C         56.33771        35.21927         0.35686
C         57.62162        37.40363         0.24587
C         56.38073        38.10603         0.34481
C         57.61411        40.25565         0.17803
C         56.38663        39.52986         0.29660
C         57.61783        41.68761         0.21311
C         56.38746        42.39558         0.45434
C         57.61218        44.55784         0.30643
C         56.38939        43.84381         0.54654
C         57.60000        45.98740         0.30711
C         56.38324        46.71147         0.51027
C         57.62434        48.82181         0.27546
C         56.37850        48.14316         0.49665
C         58.44311        25.56477        -2.60858
C         59.76704        27.60169        -2.09535
C         58.52027        26.86608        -2.06498
C         59.86819        28.88150        -1.66238
C         58.75693        29.54013        -0.94926
C         59.85177        31.77411        -1.07054
C         58.70042        31.00516        -0.78193
C         59.88641        33.13154        -0.85022
C         58.75594        33.82438        -0.33171
C         60.01534        35.96925        -0.26507
C         58.81902        35.21125        -0.08832
C         60.03720        37.33551        -0.13884
C         58.82228        38.09627         0.05351
C         60.03318        40.28188        -0.13881
C         58.83651        39.54039         0.01971
C         60.02939        41.66415        -0.12856
C         58.83411        42.40256         0.05457
C         60.01485        44.60106        -0.14184
C         58.82957        43.85654         0.07269
C         60.01017        45.98544        -0.13472
C         58.81221        46.70179         0.08317
C         58.78979        48.13156         0.07751
O         29.06711        47.73642         1.43847
O         25.20133        29.31864        -2.62988
O         35.08464        39.92644        -1.22204
O         55.16731        32.12569         1.58764
O         30.04153        23.88603         2.21158
O         36.97708        44.15599         2.56455
O         39.69483        29.00071         3.03413
O         47.52853        49.96640         2.39017
O         54.03901        42.94094         2.27570
O         26.66429        26.74539        -2.35636
O         31.57577        47.76743         1.59032
O         40.93948        31.23746         3.29883
O         52.65127        41.21590        -0.77579
O         43.16855        32.39256         3.07724
O         46.44879        43.11724        -0.27330
O         48.36927        46.34309         2.87519
O         58.31730        28.79569         0.23236
O         43.38437        50.97906         1.51265
O         39.08755        47.85714         2.13274
O         30.22022        32.39421         1.73443
O         53.77788        28.95252         1.24126
H         54.52290        29.41632         1.68246
O         33.83333        26.79856         2.93294
H         32.91858        26.48942         3.10985
O         31.93974        38.02693        -2.00492
H         32.76915        38.50465        -2.22397
O         50.78849        25.95690        -3.55451
H         49.91495        26.40258        -3.60246
O         41.50705        43.94555         3.23595
H         40.63579        43.61075         3.53972
O         35.48710        23.05866         3.06181
H         34.72542        23.55155         3.43584
O         57.90632        35.84713         2.01231
H         58.78642        36.25128         2.17130
O         45.39771        40.30879         3.25298
H         45.39565        39.38286         3.57744
O         50.07216        50.74409         2.80480
H         49.15308        50.46635         3.06216
O         40.25430        48.11685        -1.28430
H         41.02643        48.45690        -1.78421
O         49.82499        29.57871        -2.43613
H         50.60410        29.22426        -2.91679
O         51.59800        37.94502        -1.16829
H         50.94904        38.52826        -1.61480
O         52.74326        50.48178         2.91160
H         51.79889        50.50356         3.20873
O         36.46683        25.37785        -0.60802
H         37.29673        25.79906        -0.91964
O         26.57903        35.21286         1.51881
H         27.35164        34.73206         1.88757
O         45.30992        49.67661        -1.29954
H         46.15291        49.20619        -1.47124
O         44.14622        54.32254        -3.39201
H         43.33713        54.69940        -3.79956
O         37.46898        53.40177         0.33352
H         36.63229        53.90609         0.23958
O         34.44690        49.56277        -2.90063
H         33.73379        49.85589        -3.50816
O         52.46806        37.52025         2.34979
H         53.20845        37.04724         2.78467
H         22.27887        26.75745        -1.18932
H         22.20658        29.18497        -1.25560
H         22.22186        31.10953        -1.10646
H         22.18029        33.53536        -0.83547
H         22.22579        35.40534        -1.27374
H         22.20884        37.83665        -1.28576
H         22.16562        39.72662        -1.01273
H         22.14541        42.14076        -0.80711
H         22.11752        44.00872        -0.56037
H         22.12993        46.46076        -0.47192
H         25.53289        23.43354        -0.47488
H         23.50157        24.66360        -1.03610
H         25.50810        49.81772        -0.46051
H         23.35394        48.58842        -0.42383
H         27.15814        22.48848        -0.20161
H         27.13191        50.03497        -2.00278
H         29.12585        21.25693         0.44210
H         29.25018        51.10012        -2.62507
H         32.86740        19.15443         0.93020
H         30.74074        20.34387         0.90843
H         33.09658        53.27559        -3.09569
H         30.97248        52.11173        -2.83992
H         34.51053        18.24551         1.27391
H         34.70353        54.30354        -3.00492
H         36.59136        17.05651         0.88376
H         36.78095        55.55215        -3.03386
H         40.25012        14.98096        -0.25877
H         38.18013        16.13839         0.38221
H         40.49885        57.87555        -2.81939
H         38.34620        56.68067        -2.73388
H         42.62615        15.04527        -0.92633
H         42.92548        57.98062        -2.25176
H         44.67144        16.31287        -1.41378
H         45.05370        56.79158        -1.96215
H         48.20749        18.59665        -2.36371
H         46.19940        17.31938        -1.89801
H         48.77512        54.62656        -1.29481
H         46.70861        55.68054        -2.06369
H         49.73239        19.61850        -2.83998
H         50.43544        53.61619        -1.01150
H         51.79439        20.87122        -3.11871
H         52.49051        52.49938        -0.28363
H         55.61235        22.88316        -2.78578
H         53.48539        21.70227        -2.82015
H         56.04532        50.84513         0.43498
H         54.07248        52.09662         1.03953
H         57.20754        23.88188        -3.07176
H         57.65753        49.91882         0.26956
H         59.35774        25.07628        -2.97377
H         60.63131        27.11814        -2.57479
H         60.81004        29.42453        -1.82043
H         60.75685        31.28214        -1.44896
H         60.81446        33.67336        -1.07009
H         60.95417        35.46094        -0.52408
H         60.99165        37.85970        -0.27453
H         60.99218        39.76426        -0.27155
H         60.98672        42.18671        -0.25415
H         60.96552        44.08273        -0.32343
H         60.94426        46.53929        -0.30669
H         59.73155        48.67449        -0.08888
