         661
 CSIRO Nanostructure Databank - Neutral Graphene Oxide Data Set
C          6.31184        32.02580        -2.07544
C          6.38887        33.39200        -2.16092
C          8.61300        27.68782        -1.40538
C          8.61598        29.06175        -1.47571
C          7.42669        29.84480        -1.70891
C          8.68789        31.93306        -1.22016
C          7.44901        31.22268        -1.71309
C          8.72402        33.40610        -1.48944
C          7.61257        34.10791        -1.88258
C          8.68385        36.29876        -1.22443
C          7.70390        35.59995        -2.14775
C          8.57177        37.60229        -0.89525
C         10.88761        23.40360        -0.72246
C         10.97064        24.75022        -0.93619
C          9.78808        25.54479        -1.17517
C         11.09099        27.64165        -1.05778
C          9.82974        26.92282        -1.26826
C         11.13570        29.04419        -1.12195
C          9.92522        29.76141        -1.56014
C         11.31444        31.96917        -1.53007
C          9.96630        31.24348        -1.66890
C         11.16964        33.43521        -1.13286
C          9.96929        34.08425        -1.16239
C         11.03638        36.21114        -0.27112
C          9.74538        35.45148        -0.55176
C         10.97201        37.74425        -0.31070
C          9.54057        38.23001         0.08934
C         10.56540        40.28686         0.98389
C          9.55866        39.73891         0.18266
C         10.72698        41.66836         1.25726
C         13.26293        18.97581        -0.39968
C         13.25168        20.39637        -0.31405
C         12.07883        21.12709        -0.50520
C         13.37699        23.24230        -0.33568
C         12.02529        22.59128        -0.15849
C         13.50681        24.70840        -0.58325
C         12.29639        25.47651        -1.11619
C         13.40277        27.59568        -0.23758
C         12.25736        26.92457        -0.71178
C         13.37118        29.00717        -0.12758
C         12.26786        29.75577        -0.62446
C         13.40287        31.91594        -0.14120
C         12.29212        31.20516        -0.63012
C         13.58347        33.28290        -0.49210
C         12.49546        34.18147        -1.08380
C         13.57652        36.52761        -0.25381
C         12.38239        35.57422        -0.40739
C         13.40396        37.77358         0.56805
C         12.00192        38.28666         0.66195
C         13.39635        40.39495         2.09575
C         11.58641        39.32416         1.43286
C         13.23262        41.72745         1.89994
C         11.87027        42.42628         1.92560
C         13.10555        44.52212         1.00431
C         11.93982        43.74667         1.17011
C         13.11916        45.87122         0.63651
C         15.71463        14.67170        -0.53758
C         15.68580        16.09396        -0.43482
C         14.47322        16.81302        -0.38924
C         15.71584        18.91453        -0.15287
C         14.45892        18.22501        -0.29056
C         15.72178        20.35099         0.06673
C         14.51035        21.07810         0.00110
C         15.72625        23.15951         0.48520
C         14.53910        22.47818         0.17992
C         15.66086        24.62271         0.78422
C         14.60335        25.43702         0.11283
C         15.69243        27.52207         0.81859
C         14.55439        26.81134         0.24705
C         15.73258        28.94092         0.77507
C         14.41140        29.68764         0.72496
C         15.88619        31.88326         0.61207
C         14.53056        31.20631         0.52660
C         16.02127        33.24573         0.07760
C         14.91168        33.77026        -0.53283
C         15.94959        36.25964         0.60152
C         14.91340        35.92607        -0.25682
C         15.81238        37.55542         1.28787
C         14.59860        38.26745         1.33356
C         15.80366        40.33432         1.99845
C         14.62573        39.64107         1.84550
C         15.78673        41.81423         2.01534
C         14.46564        42.54380         1.90967
C         15.66010        44.61311         0.96957
C         14.41583        43.95674         1.45159
C         15.61618        45.94729         0.68004
C         14.33926        46.70747         0.99697
C         15.49696        48.76886         0.05437
C         14.34642        48.11975         0.46904
C         15.54231        50.19896        -0.09076
C         18.18345        10.42139        -0.41841
C         18.14280        11.77530        -0.46655
C         16.87488        12.48686        -0.89983
C         18.14297        14.70037        -0.79988
C         16.90931        13.99000        -0.70736
C         18.17099        16.09666        -0.63833
C         16.93320        16.80258        -0.44084
C         18.17403        19.01593        -0.47004
C         16.91709        18.20997        -0.28079
C         18.21444        20.24231         0.44290
C         16.92859        21.03787         0.34506
C         18.18568        23.09406         1.00910
C         16.92200        22.41849         0.60528
C         18.17368        24.51101         1.51047
C         16.85443        25.31729         1.42858
C         17.83484        27.61574         1.86743
C         16.81528        26.81763         1.32939
C         18.05508        28.95345         1.50066
C         16.95327        29.63149         0.95900
C         18.51301        31.74289         0.50561
C         17.08041        30.98976         0.30713
C         18.42437        33.22574         0.76715
C         17.32253        34.03474         0.09066
C         18.27162        36.04257         1.30505
C         17.14001        35.44630         0.71301
C         18.24077        37.46606         1.62587
C         17.04814        38.16461         1.71239
C         18.28308        40.33247         1.51010
C         17.11106        39.61221         2.14468
C         18.23276        41.69372         1.20422
C         17.00778        42.49275         1.45654
C         18.09284        44.42487         0.21051
C         16.79218        43.69155         0.54251
C         18.03123        45.89755        -0.04121
C         16.76941        46.65677         0.15798
C         17.92883        48.67726        -0.68392
C         16.72763        47.99994        -0.13654
C         17.93853        50.21303        -0.80172
C         16.71848        50.92451        -0.34598
C         18.00465        53.05136        -0.35074
C         16.78940        52.32169        -0.19645
C         18.04099        54.44043        -0.14388
C         20.57118         6.03738        -0.50780
C         20.62009         7.53530        -0.25918
C         19.41855         8.26292        -0.27370
C         20.63536        10.35997        -0.02071
C         19.40920         9.66471        -0.19298
C         20.65340        11.80964        -0.16303
C         19.36413        12.61849        -0.16599
C         20.69440        14.64847        -1.05345
C         19.36879        13.86342        -1.11639
C         20.69656        16.18534        -1.08392
C         19.41677        16.85163        -0.63279
C         20.69747        18.95699        -0.29767
C         19.44954        18.21325        -0.41325
C         20.72323        20.32685        -0.04119
C         19.43787        21.06515         0.06062
C         20.74210        23.19575         0.59993
C         19.44074        22.51909         0.39588
C         20.72844        24.50895         1.00204
C         19.51036        25.18723         1.40711
C         20.70196        27.37436         1.26838
C         19.67939        26.45898         1.87302
C         20.66676        28.81255         1.77321
C         19.36805        29.62221         1.74424
C         20.67584        31.74727         1.73470
C         19.49364        31.06041         1.43029
C         20.74209        33.16289         1.64255
C         19.51471        33.88849         1.34449
C         20.70298        36.04507         1.82439
C         19.46884        35.31162         1.50657
C         20.69365        37.48888         1.53175
C         19.51133        38.18195         1.59670
C         20.71315        40.32729         1.18518
C         19.49677        39.61998         1.39496
C         20.67195        41.72732         1.01254
C         19.42950        42.40462         0.87610
C         20.61942        44.49377         0.29443
C         19.39726        43.78165         0.50659
C         20.60424        45.96801         0.07645
C         19.29690        46.69202        -0.00679
C         20.43378        48.72700        -1.01344
C         19.22154        48.02854        -0.58441
C         20.43164        50.20276        -0.91200
C         19.25270        50.91091        -0.76502
C         20.43134        53.08808        -0.75966
C         19.24699        52.35647        -0.62199
C         20.47649        54.50268        -0.55062
C         19.25499        55.17818        -0.18790
C         20.54058        57.22720         0.23747
C         19.30664        56.54369         0.15313
C         20.60267        58.57925         0.64901
C         23.06442         3.19386         0.04294
C         21.86929         3.83571        -0.10887
C         23.07535         6.03601         0.23139
C         21.77880         5.29557         0.04884
C         23.15614         7.47349        -0.23759
C         21.84077         8.21716        -0.08701
C         23.12519        10.33246         0.25279
C         21.84275         9.61914         0.07686
C         23.13191        11.81182         0.01973
C         21.84455        12.46717        -0.27973
C         23.14562        14.59901        -0.17608
C         21.91803        13.89644        -0.65553
C         23.13609        16.09660        -0.11681
C         21.91438        16.83658        -0.45245
C         23.20185        18.90246        -0.11022
C         21.94214        18.21126        -0.29362
C         23.20405        20.33174         0.12232
C         21.96361        21.03634         0.17573
C         23.21704        23.08254         0.70465
C         21.98110        22.43458         0.46395
C         23.21725        24.59127         0.71221
C         22.02078        25.17251         1.45080
C         23.22222        27.37169         1.26766
C         22.04387        26.69398         1.33001
C         23.22688        28.86476         1.28772
C         21.92876        29.57658         1.52689
C         23.24432        31.71198         2.03930
C         21.92434        30.99107         2.02733
C         23.21807        33.17760         1.88218
C         22.00885        33.84199         1.77751
C         23.26838        36.05425         1.52075
C         22.01665        35.32498         1.86887
C         23.22172        37.41420         1.21476
C         21.91749        38.11606         0.93771
C         23.17196        40.26213         0.96856
C         21.96389        39.60902         1.11711
C         23.21599        41.73726         0.93850
C         21.91193        42.49872         0.94348
C         23.14804        44.65577         0.38039
C         21.85216        43.88307         0.46051
C         23.03419        45.96752        -0.36827
C         21.82927        46.61182        -0.44716
C         23.03461        48.75541        -0.99315
C         21.76122        47.98910        -0.98732
C         23.01519        50.15796        -1.08329
C         21.74046        50.88234        -0.81259
C         22.93137        53.10767        -1.32547
C         21.72541        52.38054        -0.82000
C         22.94039        54.63558        -1.22974
C         21.70663        55.20478        -0.55728
C         23.02542        57.20983         0.03853
C         21.76036        56.54006        -0.11239
C         23.06065        58.53839         0.50865
C         21.83639        59.24436         0.78745
C         23.12961        61.22903         1.40748
C         21.90085        60.59424         1.22706
C         24.30020         3.89986         0.21021
C         25.58649         6.01607         0.18333
C         24.34904         5.28190         0.22353
C         25.63072         7.39995         0.24141
C         24.33373         8.15086         0.48146
C         25.61402        10.27200         0.02475
C         24.40800         9.60788         0.12188
C         25.65975        11.71702        -0.11802
C         24.39880        12.43021        -0.54083
C         25.61735        14.61557        -0.20493
C         24.44028        13.91498        -0.29030
C         25.63728        16.06117        -0.24582
C         24.42996        16.78720        -0.21546
C         25.68568        18.96162        -0.45954
C         24.40899        18.19901        -0.23111
C         25.72319        20.19611         0.44002
C         24.42521        20.99008         0.41215
C         25.69277        23.01048         1.21423
C         24.42879        22.36159         0.73913
C         25.70674        24.48707         1.62443
C         24.49000        25.26242         1.17954
C         25.75613        27.37235         1.29363
C         24.48252        26.62185         1.29152
C         25.76160        28.86533         1.36692
C         24.48870        29.60761         1.55471
C         25.74789        31.72888         1.63990
C         24.50552        30.95979         1.77827
C         25.72460        33.10710         1.58045
C         24.53052        33.91410         2.07188
C         25.69784        35.98193         1.21117
C         24.51123        35.33590         1.54402
C         25.66707        37.37710         0.65168
C         24.42520        38.15635         0.97031
C         25.70620        40.33277         0.93693
C         24.41413        39.53848         0.85180
C         25.66279        41.68654         0.25672
C         24.35513        42.35583         0.19573
C         25.56080        44.50730        -0.43209
C         24.28672        43.80817        -0.16966
C         25.47486        45.91727        -0.71761
C         24.27273        46.61603        -0.75745
C         25.46785        48.78908        -1.18348
C         24.26540        48.05944        -0.99194
C         25.45301        50.18249        -1.32893
C         24.22668        50.87205        -1.21454
C         25.49328        53.07193        -1.22687
C         24.21216        52.34609        -1.41175
C         25.46258        54.45180        -0.82907
C         24.24725        55.17373        -0.67322
C         25.51424        57.14674         0.09037
C         24.25900        56.49575        -0.19197
C         25.52020        58.49282         0.52868
C         24.32044        59.19966         0.73181
C         24.32494        60.55053         1.17571
C         26.84944         8.14097         0.18798
C         28.09451        10.28515         0.11563
C         26.87241         9.53730         0.12004
C         28.10461        11.67318         0.06712
C         26.84935        12.39505        -0.02983
C         28.09077        14.46187        -0.70282
C         26.91490        13.90358         0.09598
C         28.13701        15.99088        -0.64385
C         26.89845        16.75972        -0.37089
C         28.20921        18.85927        -0.15990
C         26.95760        18.14966        -0.30789
C         28.22581        20.27779         0.08038
C         26.93311        21.07990         0.06401
C         28.25562        23.07115         0.94368
C         26.99002        22.30666         0.95497
C         28.21339        24.45605         1.15065
C         27.01198        25.20569         1.30977
C         28.22462        27.37365         1.35332
C         27.03463        26.62541         1.41407
C         28.28236        28.81449         1.43402
C         27.02340        29.54636         1.85832
C         28.20513        31.68406         1.32176
C         27.01375        31.01412         1.50697
C         28.22728        33.10165         1.13047
C         26.90703        33.80891         0.95884
C         28.15672        35.99560         1.04328
C         26.95234        35.29970         1.16138
C         28.19378        37.42316         0.87049
C         26.95529        38.15772         0.78582
C         28.10518        40.20705         0.04924
C         26.92109        39.52244         0.56821
C         28.13733        41.70485        -0.28718
C         26.79494        42.38909        -0.08575
C         28.07751        44.48041        -0.73277
C         26.75444        43.79422        -0.42288
C         27.99952        45.97987        -0.50778
C         26.72905        46.69483        -0.73330
C         28.01120        48.82766        -1.14531
C         26.75290        48.03590        -1.42380
C         28.00229        50.20657        -1.31711
C         26.72353        50.91661        -1.74655
C         27.93707        53.07663        -1.18021
C         26.69774        52.38244        -1.34657
C         27.93401        54.39593        -0.77331
C         26.71297        55.10467        -0.54852
C         26.71918        56.43959        -0.11071
C         29.33529        12.44281         0.06278
C         30.59609        14.54523        -0.10774
C         29.37067        13.78384        -0.23115
C         30.66498        15.90506        -0.19047
C         29.45183        16.70908        -0.47435
C         30.67325        18.82006         0.03719
C         29.43715        18.14571        -0.12578
C         30.68484        20.24966         0.12864
C         29.43128        20.95760         0.23783
C         30.68384        23.06106         0.51589
C         29.47067        22.38765         0.57151
C         30.78262        24.45441         0.94371
C         29.49076        25.18261         1.21352
C         30.74228        27.37322         0.84943
C         29.45728        26.65156         1.00244
C         30.80925        28.79975         1.33304
C         29.47117        29.50025         1.31934
C         30.53477        31.61199         0.43922
C         29.54807        30.99887         1.46422
C         30.65831        33.11367         0.64076
C         29.42695        33.78894         0.94458
C         30.74554        35.98395         0.90345
C         29.43510        35.25396         1.12283
C         30.67362        37.42726         0.64672
C         29.43287        38.09963         0.74287
C         30.66412        40.27304         0.34155
C         29.41960        39.49214         0.26211
C         30.61629        41.73017         0.60558
C         29.27490        42.47631         0.41407
C         30.24169        44.79802         0.40287
C         29.23608        43.91840         0.09540
C         30.40939        46.10498        -0.18995
C         29.25934        46.74447        -0.64200
C         30.48325        48.84705        -0.80675
C         29.23897        48.14112        -0.88774
C         30.43583        50.26198        -1.00398
C         29.23657        50.92214        -1.24196
C         29.21627        52.38853        -1.60187
C         31.98286        16.60706         0.07754
C         33.11680        18.82403        -0.03460
C         31.93023        18.11966        -0.00010
C         33.14821        20.26054        -0.04433
C         31.90705        20.94871         0.05696
C         33.19274        23.12286         0.14730
C         31.87946        22.43686        -0.14746
C         33.22023        24.51752         0.35587
C         32.00833        25.23110         0.64008
C         33.21121        27.36011         0.56736
C         32.01445        26.61191         0.76491
C         33.15384        28.78824         0.46518
C         31.94068        29.52843         0.64747
C         32.98804        31.62516        -0.07955
C         31.87305        30.91395         0.39932
C         33.00493        33.06909        -0.19127
C         31.82625        33.80218         0.28927
C         32.98057        35.96075        -0.15624
C         31.89721        35.24639         0.34745
C         33.03502        37.40335        -0.10290
C         31.83836        38.10831         0.22599
C         33.11338        40.22293         0.11516
C         31.84114        39.55219         0.20161
C         33.09031        41.58382         0.46666
C         31.94929        42.40168         0.58378
C         33.16237        44.58949        -0.02825
C         32.16703        43.79713         0.67124
C         32.92913        45.98571        -0.25724
C         31.70412        46.73793        -0.27957
C         31.68901        48.12382        -0.58694
C         34.36441        20.98276        -0.13565
C         35.63971        23.13542        -0.07059
C         34.41341        22.40983        -0.02633
C         35.67488        24.54280         0.01578
C         34.44643        25.24186         0.25860
C         35.63563        27.39794         0.10605
C         34.43217        26.66425         0.32715
C         35.56613        28.80331         0.01010
C         34.34064        29.47789         0.11936
C         35.39966        31.56240        -0.93210
C         34.20443        30.86175        -0.37797
C         35.27863        33.03544        -1.35262
C         34.10891        33.75543        -0.67964
C         35.37146        35.99513        -0.95383
C         34.04202        35.24641        -0.94899
C         35.39731        37.37548        -0.88187
C         34.22582        38.12364        -0.45375
C         35.46785        40.28734        -0.79308
C         34.29172        39.54598        -0.31570
C         35.50068        41.71307        -1.06516
C         34.74232        42.66784        -0.36852
C         34.29731        43.97394        -0.66983
C         36.88229        25.31029        -0.14896
C         38.08251        27.49210        -0.38236
C         36.88386        26.70403        -0.12626
C         38.07842        28.87156        -0.40507
C         36.83018        29.60605         0.01285
C         37.85440        31.72772        -0.61703
C         36.71638        30.96579        -0.61367
C         37.66899        33.16534        -0.65298
C         36.55541        33.79620        -1.09374
C         37.85216        36.00376        -1.75626
C         36.56046        35.25088        -1.40999
C         37.80546        37.44846        -1.51574
C         36.62705        38.10839        -1.18163
C         36.58261        39.53710        -1.18549
C         39.23041        29.70110        -0.67612
C         40.34889        31.83579        -1.16435
C         39.17344        31.09319        -0.70671
C         40.51125        33.15340        -1.50674
C         39.52961        34.20575        -1.26777
C         39.17929        35.31375        -1.97078
O         31.20180        44.49825         1.39018
O         26.35355        22.18995         2.27304
O         16.94670        30.73446        -1.06453
O         18.21798        23.38147         2.44954
O         30.32404        24.73218         2.33150
O         29.92859        27.11561        -0.33788
O          9.93921        30.47655        -2.89805
O         25.84317        28.23647         0.06079
O         19.20735        22.06255        -0.98226
O         13.84226        23.72018        -1.64646
O         27.27516        46.55740         0.63691
O         21.36796        35.75160         3.12663
O         34.58036        30.76331        -1.86703
O         18.02112        44.95947        -1.17847
O         14.37574        43.65039         2.90476
O         15.04953        31.77771         1.80213
O         28.41007        41.80904        -1.67258
O         34.27692        42.17393         0.88059
O         15.10178        34.97924        -1.24417
O         22.96455        15.26337         1.11808
O         29.69210        42.05159         1.72810
O         23.92353        42.79824        -1.15338
O         21.62707        14.14539        -2.08842
O         38.71986        33.93679        -0.14367
O         23.42217        52.67161        -2.64022
O         21.93605        51.65876         0.44857
O         16.72338        42.54466         2.88729
O         36.90267        35.56877        -2.81113
O         21.02977        48.13762        -2.26042
O         15.76581        24.82209         2.25125
O         22.43733        29.44892         0.16202
O         13.66766        37.81550        -0.95923
O         28.74314        39.47971        -1.04941
O         18.73778        26.98762         2.73669
O         22.79811        42.37685         2.17342
O         23.18800        11.30332         1.38227
O         28.86446        16.49395        -1.82669
O         17.71391        49.38256        -1.97039
O         30.30500        35.61823         2.26042
O         11.69738        35.59350         0.88890
O         12.31568        39.65440         2.56759
O         20.05074        46.65212         1.28299
O         22.20078         5.79255         1.36907
O         20.02918        29.19227         3.00157
O         22.58013        31.24227         3.29709
O         24.71842        34.03236         3.52172
H         24.34374        33.23139         3.94778
O         17.39086        39.62350         3.58469
H         17.37054        40.56436         3.87198
O         22.86625        55.15708        -2.59001
H         23.25816        54.46644        -3.17632
O         18.11368        19.53903        -1.82854
H         18.25241        18.79444        -2.45064
O         33.60011        35.35675        -2.34891
H         34.18497        34.75009        -2.87236
O         19.16313        31.61820        -0.78580
H         18.44632        31.25399        -1.40159
O         25.91324        19.65552         1.76294
H         25.95758        20.41704         2.39107
O         27.86412        14.09514        -2.08334
H         28.42234        14.70041        -2.62408
O         37.04815        29.91474         1.45185
H         37.19401        29.05974         1.91149
O         11.16694        38.17939        -1.66376
H         12.13681        38.14312        -1.85481
O         24.03379         8.09184         1.90011
H         24.67519         8.66008         2.37457
O         23.45793         7.41701        -1.65614
H         23.61291         8.33144        -1.97483
O         26.64824        33.70151        -0.50563
H         26.74101        32.75543        -0.75409
O         16.31943        43.07294        -0.68949
H         16.60072        43.66729        -1.42632
O         26.76105        21.64896        -1.25491
H         26.52682        20.91448        -1.87412
O         16.66452        12.21420        -2.29908
H         17.45363        12.56995        -2.77239
O         22.16777        24.85918         2.85624
H         21.34118        25.10654         3.32270
O          8.14297        35.79899        -3.50124
H          7.59833        35.23627        -4.08834
O         35.02421        33.07512        -2.78497
H         34.55434        32.23152        -2.99851
O          9.17991        35.11989         0.76797
H          9.93772        34.79566         1.31136
O         28.35929        44.34445        -2.13919
H         28.39020        43.35127        -2.30594
O         19.22634        13.16659         1.17383
H         19.30601        12.43112         1.81703
O         14.27558        46.86409         2.45907
H         14.30868        45.96573         2.85791
O         26.96791        29.45864         3.31283
H         27.78104        29.87330         3.67286
O         25.63978        19.37129        -1.86778
H         25.73180        18.56470        -2.41781
O         12.83461        34.47764        -2.45558
H         12.73409        33.63584        -2.96559
O         18.37805        19.78480         1.80362
H         18.22783        20.54116         2.40962
O          8.71762        31.79154         0.24098
H          8.03164        32.38500         0.61435
O         31.18433        28.71009         2.74680
H         31.06917        29.61163         3.13056
O         25.62639        24.52789         3.08213
H         26.09357        23.72567         3.41388
O         23.55418        45.00317         1.73524
H         22.78855        45.40863         2.19404
O          9.23771        37.76113         1.42274
H          9.08694        36.78100         1.38038
O         20.78439        16.54697        -2.50346
H         21.37341        15.88143        -2.92865
O         27.21109        14.20235         1.48844
H         26.44357        13.92658         2.03275
O         30.05486        31.27316         2.80535
H         30.16136        32.24615         2.89434
O         29.29306        52.48064        -3.04167
H         28.54284        51.95487        -3.40545
O         26.75161        50.87276        -3.22002
H         25.93230        51.30676        -3.54486
O         11.51858        42.71407         3.30939
H         12.31742        43.10465         3.72885
O         29.91105        31.40208        -0.85774
H         30.55254        31.66025        -1.55252
O         19.20982        13.38131        -2.47086
H         20.11789        13.29567        -2.84922
O         11.95590        31.95927        -2.83913
H         11.50508        31.24583        -3.36032
O         17.76628        34.26679        -1.27517
H         16.99345        34.61544        -1.77590
O         32.99752        16.09258        -0.79787
H         32.72275        16.27172        -1.72041
O         24.29192        12.23732        -1.98874
H         25.10001        12.61085        -2.40174
O         26.77714        47.73834        -2.85259
H         26.81965        48.59856        -3.32859
O         21.73036        37.91843        -0.52531
H         22.56605        38.18317        -0.96929
O         25.86791        40.62008         2.37048
H         25.10721        41.16918         2.66144
O         25.55160        37.15782        -0.80930
H         26.25908        36.53047        -1.07554
O         19.37342         5.47800         0.04525
H         19.45211         5.51864         1.02111
O         31.67815        22.63599        -1.60521
H         32.43005        22.20305        -2.06332
O         23.04113        24.98226        -0.68104
H         23.78274        24.61703        -1.20705
O         13.86397        29.51601         2.07672
H         14.29759        30.19840         2.64078
O         12.44490        25.57685        -2.56765
H         12.90563        24.75319        -2.85718
O         20.35833        27.46045        -0.15121
H         21.06552        27.99271        -0.58735
O         11.82498        22.63008         1.30548
H         10.99257        22.15324         1.50795
H          5.37078        31.51469        -2.32821
H          5.50357        33.97030        -2.46492
H          7.65748        27.14191        -1.43981
H          6.49035        29.31373        -1.94240
H          6.67936        36.06089        -2.02280
H          7.76876        38.21582        -1.33445
H          9.89128        22.92899        -0.71930
H          8.81424        25.03147        -1.21495
H          8.80905        40.36524        -0.32367
H          9.91022        42.31366         0.89106
H         12.31411        18.44602        -0.57541
H         11.14002        20.59607        -0.72993
H         10.97779        44.22771         0.93035
H         12.18141        46.37746         0.36039
H         14.76731        14.11315        -0.50172
H         13.52090        16.26733        -0.46697
H         13.43223        48.71215         0.62962
H         14.63118        50.76313         0.16123
H         17.26882         9.84717        -0.63479
H         15.99356        12.06188        -0.35274
H         15.88136        52.87156         0.09348
H         17.11062        54.96710         0.11623
H         20.52308         5.86578        -1.61770
H         18.47250         7.71966        -0.41412
H         18.37740        57.07573         0.40543
H         19.67056        59.11303         0.88740
H         23.10485         2.09834        -0.04441
H         20.95765         3.27516        -0.36223
H         23.15568        62.27352         1.74855
H         20.96587        61.13537         1.43152
H         25.23597         3.32237         0.24044
H         26.52581         5.44809         0.08766
H         26.48223        58.99234         0.71713
H         25.28724        61.05660         1.33897
H         27.80260         7.58915         0.18629
H         29.04747         9.73566         0.15349
H         28.88715        54.92800        -0.63352
H         27.67881        56.94297         0.07847
H         30.27198        11.91927         0.31306
H         31.51341        13.98674         0.13881
H         31.37252        50.83964        -0.98096
H         30.10708        52.91961        -1.18572
H         32.31165        16.33561         1.12007
H         34.06650        18.26967        -0.07004
H         33.80188        46.53708        -0.64797
H         32.64412        48.66957        -0.63399
H         35.30705        20.42530        -0.24094
H         36.57825        22.58071        -0.22204
H         36.17303        42.04435        -1.87167
H         34.78417        44.52620        -1.48730
H         37.82358        24.77244        -0.34110
H         39.01985        26.94862        -0.58294
H         38.73284        38.03283        -1.61848
H         37.47652        40.07257        -1.54095
H         40.18301        29.20084        -0.91378
H         41.21134        31.18367        -1.38672
H         41.45177        33.43336        -2.00760
H         39.75142        35.61866        -2.85993
