         661
 CSIRO Nanostructure Databank - Neutral Graphene Oxide Data Set
C          5.81472        31.83405        -1.00190
C          5.83834        33.19786        -1.01844
C          8.18096        27.51161        -0.51358
C          8.21469        28.91392        -0.55964
C          7.01678        29.67133        -0.79317
C          8.27581        31.77672        -0.78672
C          7.02851        31.06270        -0.86000
C          8.30387        33.18873        -0.81517
C          7.07643        33.93383        -0.90866
C          8.32904        36.04889        -0.76268
C          7.10429        35.32786        -0.87902
C          8.35788        37.45463        -0.71144
C         10.70400        23.12538        -0.30430
C         10.65559        24.55099        -0.28487
C          9.45319        25.26064        -0.47027
C         10.68868        27.44866        -0.02580
C          9.36057        26.69575        -0.20197
C         10.74797        28.97393        -0.04597
C          9.44967        29.64747        -0.44817
C         10.76444        31.74122        -0.66600
C          9.49020        31.02796        -0.63960
C         10.78287        33.17022        -0.67330
C          9.54812        33.89795        -0.72475
C         10.80989        36.01422        -0.62279
C          9.56593        35.30987        -0.70523
C         10.81800        37.43198        -0.52071
C          9.57048        38.17480        -0.57653
C         10.78357        40.32663        -0.40288
C          9.58533        39.58589        -0.55582
C         10.81824        41.72079        -0.38334
C         13.16360        18.74960        -0.29682
C         13.15626        20.27561        -0.21050
C         11.95373        20.97042        -0.21125
C         13.15385        23.11654        -0.09447
C         11.91366        22.40236        -0.19206
C         13.13507        24.54373        -0.12835
C         11.91319        25.27339        -0.18746
C         13.13656        27.39590        -0.46449
C         11.92531        26.69443        -0.26975
C         13.19045        28.82534        -0.65775
C         11.88361        29.52727        -0.91062
C         13.21488        31.70882        -0.72229
C         11.96661        31.02938        -0.73866
C         13.24582        33.13325        -0.64807
C         12.02017        33.86426        -0.65335
C         13.28274        36.00199        -0.60182
C         12.04586        35.29993        -0.61889
C         13.27903        37.42225        -0.50594
C         12.04812        38.10920        -0.38150
C         13.34185        40.28436        -0.14676
C         12.03294        39.56303        -0.15169
C         13.32314        41.72148        -0.62221
C         12.04763        42.46659        -0.27042
C         13.33790        44.52337         0.37592
C         12.06624        43.81699        -0.02936
C         13.37171        46.02940         0.27456
C         15.73084        14.55173         0.75779
C         15.67902        15.95368         0.43156
C         14.49236        16.64586         0.43731
C         15.67888        18.78238        -0.18522
C         14.41743        18.15342         0.38343
C         15.66544        20.28417        -0.32212
C         14.38428        20.99930        -0.15468
C         15.66340        23.11539        -0.03750
C         14.39314        22.40397        -0.05787
C         15.62639        24.56774         0.02486
C         14.37253        25.25394        -0.09050
C         15.55626        27.37416        -0.25616
C         14.34873        26.65802        -0.30393
C         15.64603        28.76248        -0.72762
C         14.38645        29.52700        -0.76676
C         15.67759        31.67324        -0.67548
C         14.44664        30.97459        -0.76778
C         15.69708        33.08197        -0.52889
C         14.49485        33.81963        -0.55807
C         15.75718        35.94636        -0.62895
C         14.53674        35.26787        -0.57487
C         15.72637        37.37332        -1.10275
C         14.54167        38.15438        -0.54979
C         15.88798        40.24508        -0.17043
C         14.58427        39.51288        -0.39954
C         15.82598        41.74902        -0.34141
C         14.60574        42.44468        -0.28946
C         15.78921        44.56218        -0.20046
C         14.58146        43.84817        -0.15791
C         15.73594        46.03016        -0.48449
C         14.52750        46.73360         0.06688
C         15.79192        48.88351         0.10088
C         14.62131        48.15736         0.27562
C         15.85878        50.26578         0.42802
C         18.26096        10.34564         1.52715
C         18.16371        11.71860         1.24741
C         16.95025        12.42032         1.09450
C         18.19261        14.53282         0.68491
C         16.92822        13.83085         0.88990
C         18.16639        16.03463         0.75308
C         16.97761        16.61075        -0.02382
C         18.13865        18.84643         0.10480
C         16.96974        18.12118         0.05108
C         18.12466        20.29194         0.07080
C         16.94059        21.00409        -0.12685
C         18.16011        23.19196        -0.45905
C         16.88651        22.44278        -0.08410
C         18.14294        24.67488        -0.04828
C         16.80479        25.30778         0.22544
C         17.78651        27.60027         0.57422
C         16.70650        26.73221         0.18913
C         18.06976        28.83143         0.06389
C         16.98686        29.45509        -0.75263
C         18.27444        31.64638        -0.61597
C         16.97339        30.95216        -0.84579
C         18.25266        33.05814        -0.13463
C         16.95508        33.80903        -0.18409
C         18.23100        35.94825        -0.43665
C         17.01727        35.28377        -0.41988
C         18.40772        37.36703        -0.96684
C         17.07085        38.13222        -1.05993
C         18.44692        40.34557        -0.69418
C         17.09898        39.61150        -0.83241
C         18.31734        41.75416        -0.14416
C         17.04422        42.45892        -0.22147
C         18.23746        44.64738         0.06622
C         17.01010        43.87006        -0.18300
C         18.21737        46.08875        -0.28323
C         17.04533        46.76100        -0.35932
C         18.30530        48.93043        -0.18744
C         17.00441        48.25922        -0.57696
C         18.31743        50.31066         0.12017
C         17.05739        50.99750         0.38582
C         18.27290        53.13029         0.67422
C         17.08461        52.38200         0.68645
C         18.26060        54.52319         0.93684
C         20.82870         6.21819         2.44278
C         20.75485         7.59661         2.21981
C         19.54172         8.28076         1.96867
C         20.75482        10.38223         1.55497
C         19.50735         9.67147         1.70800
C         20.74457        11.83334         1.33776
C         19.41472        12.50796         1.19251
C         20.60752        14.46715         0.00149
C         19.37453        13.86482         0.62587
C         20.59863        15.97771         0.08657
C         19.46283        16.67779         0.32841
C         20.66980        18.90828         0.01267
C         19.44376        18.17792         0.51724
C         20.68966        20.26059         0.12613
C         19.41251        21.01203         0.29176
C         20.77168        23.12119        -0.41583
C         19.44495        22.48744         0.02599
C         20.78442        24.60641        -0.06629
C         19.48682        25.29605         0.26313
C         20.75648        27.37328         0.85807
C         19.66905        26.57205         1.00122
C         20.64233        28.88495         0.97098
C         19.45035        29.43532         0.12435
C         20.77182        31.64188        -0.09535
C         19.53547        30.87086        -0.33100
C         20.74366        33.08829        -0.19284
C         19.52340        33.78756        -0.16453
C         20.74808        35.98308        -0.01307
C         19.44449        35.25681         0.16126
C         20.73997        37.40217         0.04329
C         19.53302        38.12371        -0.22462
C         20.74044        40.20350         0.31847
C         19.55291        39.51833        -0.06359
C         20.70480        41.67422         0.48986
C         19.46991        42.42379         0.16091
C         20.80861        44.58891         0.17392
C         19.50853        43.89493         0.32891
C         20.74445        46.10594         0.11276
C         19.53262        46.74615        -0.63060
C         20.73859        48.93274        -0.21663
C         19.51655        48.23692        -0.32111
C         20.76527        50.32984        -0.01791
C         19.54270        51.01797         0.19617
C         20.70647        53.19268         0.30479
C         19.54485        52.46406         0.39533
C         20.68366        54.68469         0.32909
C         19.42560        55.30512         0.86706
C         20.65326        57.42075         1.10187
C         19.43469        56.68673         1.11224
C         20.68593        58.82438         1.12771
C         23.31376         3.39825         2.48037
C         22.10536         4.09161         2.57210
C         23.30902         6.19608         2.34111
C         22.07517         5.50895         2.49094
C         23.33658         7.65929         2.34340
C         21.99658         8.39518         2.27223
C         23.22629        10.43771         1.45089
C         21.99338         9.75850         1.72314
C         23.20519        11.79486         0.97270
C         21.97832        12.50938         0.88495
C         23.12704        14.48869         0.04138
C         21.93359        13.83995         0.41224
C         23.09842        15.84098        -0.66359
C         21.81749        16.65786        -0.44394
C         23.17170        18.90073        -0.70475
C         21.85907        18.15428        -0.45708
C         23.23733        20.25973        -0.03993
C         21.98781        20.96661         0.42281
C         23.23710        23.10322         0.28431
C         22.01828        22.42448         0.08009
C         23.27360        24.49458         0.43902
C         22.05073        25.29194         0.33036
C         23.28403        27.39338         0.75459
C         22.04105        26.62517         1.07809
C         23.20591        28.84377         0.57770
C         21.96198        29.54089         0.52672
C         23.24300        31.59018        -0.12833
C         21.95500        30.92036         0.14743
C         23.24648        33.13665        -0.26812
C         21.96686        33.82568        -0.14450
C         23.20012        35.91456         0.20400
C         21.96689        35.24565         0.00166
C         23.18166        37.34052         0.52338
C         21.94973        38.10404         0.34450
C         23.25566        40.22500         0.48141
C         21.97679        39.51131         0.46888
C         23.31816        41.70342         0.82778
C         21.98363        42.44612         0.68270
C         23.27672        44.55292         0.20516
C         21.98829        43.90169         0.34417
C         23.28594        45.98304        -0.21899
C         22.01505        46.72170        -0.44287
C         23.28159        48.96285        -0.47045
C         21.96775        48.23520        -0.74345
C         23.22646        50.41427        -0.17475
C         22.03235        51.06025        -0.02232
C         23.20085        53.24112         0.59372
C         22.01874        52.57568        -0.10306
C         23.17737        54.56378         0.97221
C         21.93813        55.33040         0.84966
C         23.11945        57.40333         1.60751
C         21.90120        56.66751         1.12220
C         23.20565        58.77266         0.92610
C         21.90482        59.54905         1.02019
C         23.23442        61.57044         0.58818
C         21.96917        60.91827         0.82033
C         24.51686         4.07243         2.27760
C         25.74112         6.21696         1.96995
C         24.53448         5.49094         2.18991
C         25.75194         7.61538         1.76481
C         24.53216         8.36054         1.86876
C         25.68639        10.39208         1.11250
C         24.47683         9.73214         1.52664
C         25.63747        11.69945         0.60877
C         24.41233        12.43016         0.54713
C         25.57290        14.48475        -0.26622
C         24.36519        13.79127         0.08624
C         25.57385        15.88886        -0.37707
C         24.37539        16.64650        -0.41992
C         25.63179        18.77942        -0.35354
C         24.41481        18.06452        -0.42447
C         25.68483        20.20462        -0.22325
C         24.43670        20.91650         0.03485
C         25.70438        22.99918         0.42104
C         24.50124        22.34714         0.33402
C         25.77411        24.45439         0.70017
C         24.47479        25.19912         0.99555
C         25.64739        27.36608         0.12612
C         24.44288        26.67919         0.62888
C         25.69195        28.82459         0.34934
C         24.44518        29.53398         0.51136
C         25.69010        31.64438         0.38978
C         24.49914        30.96294         0.32466
C         25.81603        33.09786        -0.02055
C         24.48526        33.82048         0.05695
C         25.64030        35.92008         0.64608
C         24.44319        35.19786         0.30656
C         25.70723        37.30657        -0.01533
C         24.51488        38.11285         0.46713
C         25.69031        40.26049        -0.25721
C         24.44971        39.56320         0.28433
C         25.71296        41.73797         0.06524
C         24.53658        42.41694         0.26764
C         25.69418        44.58293        -0.29975
C         24.47626        43.86657         0.19424
C         25.80018        46.03937         0.00428
C         24.48092        46.76287         0.27433
C         25.79523        48.92420         0.31963
C         24.53883        48.21515        -0.15920
C         25.80693        50.41766         0.04642
C         24.51308        51.15821        -0.06525
C         25.72659        53.08593         1.17671
C         24.45585        52.46385         0.66846
C         25.69466        54.52516         1.69060
C         24.41152        55.27167         1.33361
C         25.65766        57.40037         1.34794
C         24.41025        56.64024         1.41574
C         25.66701        58.76744         1.30640
C         24.40912        59.58053         1.46372
C         24.42082        60.94024         0.80199
C         26.95643         8.31333         1.46868
C         28.16997        10.36220         0.86684
C         26.95281         9.67947         1.15511
C         28.18252        11.67394         0.36083
C         26.86763        12.27347         0.03550
C         28.13179        14.41803        -0.47041
C         26.83747        13.73113        -0.39639
C         28.09122        15.83893        -0.82317
C         26.88329        16.57803        -0.34916
C         28.13743        18.80956        -0.68793
C         26.91806        18.07024        -0.30921
C         28.12090        20.18334        -0.57764
C         26.91651        20.87109        -0.19695
C         28.19708        23.07005        -0.18209
C         27.02733        22.26395         0.38226
C         28.22034        24.47558        -0.14224
C         27.01778        25.19333         0.33158
C         28.19552        27.37710        -0.12064
C         26.93528        26.63411        -0.02396
C         28.09964        28.86894        -0.31415
C         26.89564        29.48535         0.35087
C         28.22086        31.60316         0.84879
C         26.88265        30.87376         0.94179
C         28.20954        33.11137         0.85131
C         26.87740        33.79068         0.81635
C         28.37443        35.94694        -0.37355
C         26.72202        35.13262         1.17734
C         28.20279        37.38041        -0.02580
C         27.02012        38.07648         0.02919
C         28.19812        40.24655        -0.15417
C         27.01221        39.53681        -0.01852
C         28.27755        41.69826        -0.19517
C         27.02891        42.48645         0.13835
C         28.27409        44.58504        -0.75939
C         26.96514        43.84926        -0.54479
C         28.31535        46.12310        -0.81847
C         27.07137        46.78238        -0.23184
C         28.25925        48.91012         0.26992
C         27.02417        48.30098        -0.37377
C         28.27512        50.38243         0.44010
C         27.06176        51.09320         0.49311
C         28.26811        53.12410         1.07919
C         27.04215        52.45247         0.86510
C         28.28416        54.58713         1.48029
C         26.95058        55.29920         1.35030
C         26.90339        56.64540         1.22580
C         29.36514        12.38854         0.08970
C         30.59449        14.51167        -0.49516
C         29.35191        13.75514        -0.32652
C         30.63895        15.83747        -0.81765
C         29.37305        16.57124        -1.06597
C         30.68743        18.79513        -0.92290
C         29.38022        18.07231        -1.04437
C         30.61872        20.20194        -0.35888
C         29.38380        20.94632        -0.91221
C         30.60328        23.09692        -0.62122
C         29.38764        22.38999        -0.47844
C         30.59562        24.50999        -0.64205
C         29.39311        25.22068        -0.43208
C         30.57386        27.45166        -0.62523
C         29.37919        26.69588        -0.39645
C         30.60662        28.86406        -0.36084
C         29.40398        29.55990        -0.02950
C         30.66565        31.62379         0.36301
C         29.43479        30.90396         0.35529
C         30.66130        33.05159         0.51376
C         29.47648        33.78895         0.45691
C         30.67739        35.93396         0.52481
C         29.52716        35.22305         0.25227
C         30.58628        37.42144         0.79891
C         29.51233        38.07282        -0.05647
C         30.76170        40.25446         0.02432
C         29.49141        39.54102        -0.19745
C         30.79942        41.64781        -0.53785
C         29.47709        42.35962        -0.31007
C         30.80307        44.56734        -0.25159
C         29.54435        43.82989        -0.54951
C         30.75556        46.01073        -0.08978
C         29.57254        46.71893        -0.18706
C         30.79218        48.88555         0.44906
C         29.53192        48.12356         0.29511
C         30.73735        50.27264         0.67088
C         29.51364        51.02868         0.70538
C         29.47701        52.42463         0.97414
C         31.95085        16.56409        -1.09500
C         33.11068        18.76931        -0.63308
C         31.96196        18.05258        -0.76688
C         33.15454        20.23725        -0.58367
C         31.90504        20.98126        -0.55412
C         33.11500        23.14102        -0.52457
C         31.86806        22.35964        -0.64243
C         33.13597        24.56319        -0.91130
C         31.82119        25.23410        -1.04936
C         33.07462        27.47524        -1.15172
C         31.77390        26.74145        -1.09377
C         33.07120        28.94537        -0.82710
C         31.83225        29.59666        -0.36330
C         33.14956        31.67363        -0.00287
C         31.88483        30.95320         0.01973
C         33.20536        33.05686         0.27967
C         31.95559        33.74611         0.66967
C         33.18690        36.00789         0.52286
C         31.94642        35.24809         0.79816
C         33.16915        37.37504         0.43707
C         31.94740        38.16974         0.88127
C         33.17696        40.27288         0.27200
C         31.91318        39.57209         0.30510
C         33.16338        41.71076         0.24383
C         32.00627        42.41720        -0.04614
C         33.22707        44.57370         0.26179
C         31.97755        43.85881        -0.01353
C         33.19033        46.00503         0.32407
C         31.99697        46.72629         0.23431
C         31.98839        48.13964         0.40639
C         34.35786        20.90474        -0.68821
C         35.63801        23.12729        -0.92113
C         34.45416        22.36347        -0.54100
C         35.61970        24.53783        -1.01437
C         34.32959        25.24925        -1.04071
C         35.53445        27.40124        -1.08358
C         34.34856        26.70841        -1.11265
C         35.56873        28.80728        -0.62922
C         34.34839        29.60028        -0.53788
C         35.63055        31.69262        -0.28117
C         34.37996        30.96637        -0.24101
C         35.62120        33.11590        -0.13750
C         34.41122        33.78613         0.18887
C         35.65610        35.99324         0.06170
C         34.48448        35.23615         0.63469
C         35.61535        37.41221         0.01459
C         34.40314        38.12281         0.24188
C         35.63991        40.29263         0.06971
C         34.39013        39.55035         0.24488
C         35.65259        41.66762         0.21477
C         34.42549        42.39762         0.70250
C         34.40512        43.87800         0.45814
C         36.81111        25.26584        -1.16656
C         38.07327        27.50108        -1.33534
C         36.79731        26.71960        -1.54686
C         38.10460        28.84854        -1.08070
C         36.89303        29.54825        -0.58038
C         38.03939        31.74725        -0.78146
C         36.84535        31.02090        -0.55763
C         38.02877        33.16642        -0.68500
C         36.83731        33.85504        -0.33747
C         38.02893        36.02677        -0.61062
C         36.82576        35.29269        -0.28228
C         38.01554        37.42220        -0.58780
C         36.82674        38.15198        -0.29186
C         36.82213        39.54973        -0.25556
C         39.28850        29.65330        -1.23110
C         40.46029        31.81809        -1.31876
C         39.26511        31.03591        -1.10051
C         40.44732        33.17916        -1.25201
C         39.24085        33.91248        -0.94486
C         39.22339        35.29807        -0.91529
O         19.41087        22.02094         1.39807
O         21.53133        25.38919        -1.05668
O         17.76260        31.49265        -1.97047
O         28.99770        44.07040        -1.92686
O         30.08425        18.60426        -2.23541
O         20.11935        12.53342         2.49803
O         24.91201        52.23212         2.06844
O         36.36804        28.92277         0.63434
O         32.02963        34.40527         2.01239
O         26.76458        46.28748         1.09727
O         27.12732        17.24912         0.93706
O         16.99079        39.09235        -2.17684
O         23.97721        37.66845         1.72923
O         26.76508        24.83915         1.75266
O         28.47924        32.34412         2.10055
O         12.69336        40.00235         1.12374
O         18.72447        44.44491         1.46918
O         19.54130        18.34035         1.93910
O         28.55000        16.09349        -2.19877
O         31.60098        25.93789        -2.32421
O         21.14909        42.12389         1.84606
O         33.83708        22.86122         0.71329
O         19.81316        29.75723        -1.24771
O         18.80860        25.52988        -1.03190
O          9.96431        26.99799         1.14776
O         17.47948        33.30749         1.12214
O         16.49702        28.81016        -1.95835
O         20.69804        55.12595        -1.18917
O         15.53689        46.09124        -2.02901
O         19.00103        40.51835        -1.99077
O         25.37747        50.98597        -1.23083
O         27.74950        35.45418        -1.32356
O         26.04559        44.09154        -1.64635
O         26.06106        26.88296        -1.22175
O         26.72804        12.62680        -1.37531
O         24.24042        48.54648        -1.52904
O         33.04058        28.46175        -2.24099
O         28.65015        48.22885         1.51694
O         23.32491        32.21019        -1.42101
O         18.54988        27.10298         1.62173
O         22.72296         8.27897         3.53365
O         15.58397        19.38547        -1.51590
O         22.71694        46.07550        -1.55819
O         29.75901        38.62061        -1.38166
O         21.47715        17.39837        -1.68806
O         26.60077        30.66510         2.36245
H         27.10873        31.35856         2.84999
O         24.24362        59.84942         2.89504
H         23.47305        60.44950         2.99102
O         24.34235        25.12465         2.46031
H         25.25088        25.23869         2.82875
O         30.44529        20.02875         1.06892
H         30.37116        20.91329         1.48562
O         34.72802        35.16045         2.08793
H         33.90470        34.77897         2.48173
O         21.99624        26.36539         2.51229
H         22.85224        25.93639         2.77765
O         11.51840        29.24612        -2.29329
H         12.23661        29.57799        -2.87235
O         23.09812        15.47183        -2.08075
H         22.75031        16.25302        -2.57307
O         29.95896        37.46081         2.11092
H         30.67931        37.51168         2.78214
O         29.31198        55.28338         0.76818
H         29.11318        55.23195        -0.18893
O         26.96066        48.68363        -1.74751
H         27.46426        48.03257        -2.29133
O         23.43916        58.50906        -0.47679
H         23.47078        59.37130        -0.94248
O         19.69464        46.53562        -2.04715
H         20.40152        47.15750        -2.36799
O         22.92813        57.56892         3.03457
H         23.62987        58.18580         3.35935
O         24.24750        46.74284         1.70159
H         24.94053        47.31573         2.11981
O         20.39620        29.28461         2.34003
H         20.86698        28.65462         2.92685
O         27.59055        35.73650         2.03004
H         28.25363        35.09472         2.35880
O         23.62181        41.70733         2.25904
H         22.75457        41.65261         2.72833
O         11.99897        18.21581         0.32703
H         12.12461        18.32366         1.29451
O         22.21089        52.85101        -1.52815
H         21.77967        53.71805        -1.72990
O         20.82756        22.98747        -1.86002
H         21.20516        23.82960        -2.20969
O         22.05462        20.95368         1.90017
H         21.14660        21.15235         2.22993
O         17.16037        16.26947        -1.42149
H         16.53531        16.80481        -1.95434
O         16.16306        40.04465         1.26048
H         15.36649        40.31668         1.76534
O         28.37750        46.49029        -2.22112
H         28.79221        45.72283        -2.69094
O         30.96439        41.51972        -1.98537
H         30.34202        40.82753        -2.29826
O         19.22235        35.31973         1.62862
H         18.51450        34.65426         1.83264
O         32.18003        16.46606        -2.51488
H         31.44214        16.94163        -2.95929
O         18.16488        23.18195        -1.90293
H         18.38076        22.28011        -2.21768
O         26.24885        33.09353        -1.41639
H         26.69904        33.95271        -1.60275
O         36.67907        26.70074        -3.03576
H         35.81449        26.29065        -3.25757
O         29.44459        21.02726        -2.35668
H         30.32410        21.37394        -2.61411
O         27.21524        42.81081         1.56005
H         26.33468        42.94955         1.97252
O         25.69930        54.43693         3.14616
H         25.13113        53.66449         3.37605
O         13.31235        41.60788        -2.08312
H         13.21673        42.51029        -2.45370
O         21.76352        48.33197        -2.18789
H         22.62554        48.08999        -2.60335
O         27.40941        22.06477         1.78808
H         27.33368        22.94857         2.22056
O         34.45314        42.25927         2.18310
H         33.70690        42.78971         2.53647
O         20.66284        46.53575         1.49820
H         19.98188        45.96680         1.93300
O         18.91850        37.23651        -2.31656
H         18.79682        38.12313        -2.73557
O         16.84440        48.52347        -2.00052
H         16.22229        47.84912        -2.36016
O         23.23168        19.21267        -2.13182
H         22.62704        18.58293        -2.59025
O         11.03829        29.38078         1.31427
H         10.48450        28.81912         1.90250
O         25.90738        48.78715         1.75326
H         26.81799        48.49197         1.99220
O         14.32792        45.36905        -2.35241
H         14.67373        44.60654        -2.87818
O         32.21730        38.37337         2.30825
H         33.09860        38.79918         2.38585
O         14.32141        18.58005         1.78026
H         15.04023        18.14174         2.28495
O         15.38256        37.21544        -2.51565
H         15.69219        38.03581        -2.96964
O         17.93424        16.33466         2.15080
H         18.53998        17.10663         2.39015
O         27.85993        29.06029        -1.75852
H         27.13552        28.43699        -2.00902
O         25.46123        37.05698        -1.42657
H         26.23078        36.53823        -1.77157
O         20.51053        14.12176        -1.42293
H         21.29519        14.51685        -1.87604
O         25.55163        40.19632        -1.71775
H         24.79539        40.76013        -1.98646
O         19.53280        54.57380        -1.81669
H         18.84013        55.26339        -1.66960
O         13.40421        44.29353         1.83804
H         13.29256        43.33121         1.99508
H          4.85834        31.29619        -1.07999
H          4.90066        33.76561        -1.11090
H          7.23737        26.99444        -0.74439
H          6.06011        29.13345        -0.87519
H          6.16015        35.89035        -0.93772
H          7.41101        38.01272        -0.76831
H          9.75966        22.56755        -0.39792
H          8.54430        24.71716        -0.77067
H          8.63544        40.12899        -0.67580
H          9.87012        42.28018        -0.41318
H         13.14419        18.44483        -1.37485
H         11.00992        20.40644        -0.25183
H         11.11281        44.33623         0.16160
H         12.47381        46.56599         0.62214
H         14.77575        14.02787         0.92691
H         13.56632        16.12156         0.72732
H         13.73403        48.67245         0.67918
H         14.93925        50.77410         0.76052
H         17.33686         9.75629         1.62872
H         15.99815        11.87033         1.15355
H         16.13573        52.89520         0.90753
H         17.30938        55.00262         1.21670
H         19.89747         5.63287         2.47457
H         18.59679         7.71791         1.99332
H         18.49004        57.20814         1.33125
H         19.73672        59.38322         1.14110
H         23.31339         2.30140         2.55030
H         21.16283         3.53988         2.69677
H         23.22002        62.60932         0.22591
H         21.04658        61.51506         0.76964
H         25.45835         3.51331         2.18375
H         26.68883         5.66265         1.90027
H         26.62456        59.30091         1.19886
H         25.37426        61.46572         0.64301
H         27.90596         7.75799         1.45689
H         29.12136         9.82813         1.00893
H         28.56947        54.63353         2.56852
H         27.83804        57.20773         1.07240
H         30.33326        11.89769         0.26897
H         31.53881        13.96761        -0.33483
H         31.68267        50.81327         0.83315
H         30.41827        52.96582         1.15110
H         32.79914        16.04415        -0.58405
H         34.07741        18.24251        -0.60169
H         34.12835        46.54363         0.52705
H         32.94941        48.65423         0.55859
H         35.28264        20.33673        -0.87234
H         36.57787        22.58983        -1.11641
H         36.59571        42.22370         0.10371
H         35.33177        44.43994         0.65413
H         37.76692        24.72157        -1.20161
H         39.00010        27.00523        -1.66501
H         38.94122        37.97704        -0.80229
H         37.75594        40.09807        -0.45085
H         40.22751        29.15633        -1.51865
H         41.39301        31.28546        -1.55579
H         41.36959        33.74995        -1.43508
H         40.14439        35.85944        -1.13350
