         598
 CSIRO Nanostructure Databank - Neutral Graphene Oxide Data Set
C         23.08391        69.99171        -0.13272
C         23.15138        71.37047        -0.02328
C         22.24850        72.08416         0.81361
C         23.60159        74.11307         0.76425
C         22.49264        73.41315         1.20032
C         25.39608        65.59973        -0.79974
C         25.39916        66.99361        -0.83048
C         24.11267        67.71517        -0.49811
C         25.25983        69.87687        -1.48905
C         24.07124        69.18633        -0.87365
C         25.30669        71.39721        -1.45512
C         24.18350        72.13548        -0.76243
C         25.78095        74.17147        -0.52257
C         24.44778        73.58930        -0.30700
C         27.84156        61.24568        -0.89324
C         27.75485        62.66426        -0.88573
C         26.56695        63.42987        -1.04490
C         27.82926        65.57981        -0.98725
C         26.59478        64.85149        -0.93637
C         27.82793        66.97658        -1.12710
C         26.60170        67.69372        -1.08816
C         27.84745        69.84432        -1.75237
C         26.55515        69.10257        -1.58741
C         27.84753        71.34193        -1.97441
C         26.60489        72.13045        -1.67365
C         28.11469        74.11465        -1.23463
C         26.81322        73.50896        -1.14816
C         30.38896        57.07130        -0.58048
C         30.36133        58.48191        -0.44106
C         29.15669        59.14858        -0.70603
C         30.19597        61.29257        -0.14778
C         29.05842        60.56630        -0.62695
C         29.97382        62.65130         0.03933
C         28.93482        63.38527        -0.53421
C         30.42559        65.51041        -1.12991
C         29.09021        64.80128        -0.96348
C         30.43407        67.00068        -1.36951
C         29.10648        67.72029        -1.36640
C         30.36721        69.87854        -1.44320
C         29.06468        69.21426        -1.06167
C         30.34249        71.12992        -1.94414
C         29.16911        72.02919        -2.02234
C         30.52346        74.18484        -1.41761
C         29.30274        73.45966        -1.58262
C         32.78085        52.78665        -0.45841
C         32.76334        54.16235        -0.43108
C         31.56274        54.92601        -0.46373
C         32.82338        57.05752        -0.21703
C         31.57553        56.33260        -0.45982
C         32.78262        58.51256        -0.04135
C         31.58165        59.19918        -0.09720
C         32.84347        61.42558        -0.04739
C         31.52021        60.66782         0.30559
C         32.98678        62.82639        -0.22180
C         31.88242        63.74602        -0.09588
C         32.99359        65.61887        -1.19015
C         31.75039        64.92586        -0.76848
C         32.93725        67.09889        -1.09430
C         31.73202        67.72899        -1.17044
C         32.88066        69.95758        -0.66807
C         31.63070        69.20751        -1.00101
C         32.93749        71.44301        -0.56768
C         32.13051        72.30049        -1.27986
C         32.90958        74.62818        -0.88689
C         31.85322        73.73386        -1.16487
C         35.25532        48.43053        -0.33007
C         35.20572        49.85806        -0.21076
C         34.04313        50.56740        -0.45847
C         35.23488        52.74095         0.01859
C         34.07879        52.05235        -0.68729
C         35.20298        54.11623         0.13110
C         34.07997        54.90657        -0.51044
C         35.15904        57.06308         0.58357
C         33.99519        56.36026        -0.07277
C         35.26254        58.53367         0.25702
C         34.04346        59.24478         0.04322
C         35.34100        61.33344        -0.28187
C         34.04174        60.65393        -0.10611
C         35.42196        62.79775        -0.26664
C         34.23654        63.48396        -0.46930
C         35.52035        65.66576        -0.58438
C         34.28417        64.90558        -0.89443
C         35.48095        67.06911        -0.56527
C         34.27984        67.83682        -1.12786
C         35.30234        69.91684        -0.12625
C         34.18156        69.25005        -0.59264
C         35.26034        71.34298         0.22448
C         34.01496        71.96164         0.22258
C         35.43997        74.35792        -0.50115
C         34.10672        74.13605        -0.26049
C         37.87968        44.24691        -0.72463
C         37.77772        45.62443        -0.38753
C         36.55457        46.32683        -0.47543
C         37.66695        48.44859         0.14221
C         36.45919        47.71971        -0.20369
C         37.63858        49.83257         0.33869
C         36.43508        50.57648         0.13980
C         37.59338        52.64334         0.90820
C         36.41225        51.96728         0.32139
C         37.58750        54.15211         1.02102
C         36.44814        54.86366         0.39486
C         37.69638        57.05591         0.87631
C         36.47743        56.35446         0.41636
C         37.70832        58.46154         0.79631
C         36.50484        59.16417         0.40626
C         37.80405        61.36101         0.49659
C         36.63847        60.57729         0.03415
C         37.83505        62.77165         0.35853
C         36.66877        63.49608        -0.10959
C         37.96489        65.61421        -0.06325
C         36.68651        64.90491        -0.23773
C         37.92121        67.13187         0.05781
C         36.61970        67.82598        -0.11433
C         37.64286        69.95398         0.74489
C         36.53456        69.20036         0.10731
C         37.68392        71.43026         0.58042
C         36.46774        72.13140         0.33926
C         37.77701        74.18262         0.07778
C         36.52405        73.55129         0.04256
C         40.47204        40.03256        -1.03585
C         40.39706        41.45367        -0.86861
C         39.20956        42.15661        -0.96708
C         40.25884        44.25772        -0.17957
C         39.10625        43.56302        -0.66439
C         40.18852        45.58961         0.23790
C         38.95889        46.31962         0.06902
C         40.03732        48.35337         0.87530
C         38.89970        47.71502         0.29309
C         40.04901        49.83595         1.19940
C         38.97278        50.55653         0.33192
C         40.06172        52.69501         1.06450
C         38.91812        51.99749         0.80618
C         40.03464        54.09291         1.56782
C         38.83992        54.90018         1.22519
C         40.15671        57.00254         1.32436
C         38.86668        56.28347         1.16303
C         40.18748        58.49725         1.26277
C         38.90760        59.21715         1.03986
C         40.08072        61.33536         1.55417
C         38.90963        60.61558         1.00624
C         40.12138        62.83422         1.43330
C         39.00715        63.52331         0.74496
C         40.26960        65.64018         0.96890
C         39.10057        64.89732         0.54823
C         40.21771        67.09945         1.03172
C         39.05684        67.78951         0.73293
C         40.17653        70.01798         1.16845
C         38.93494        69.22959         1.05538
C         40.12524        71.40509         1.06392
C         38.91225        72.10658         0.71435
C         40.19128        74.23827         0.47680
C         38.96415        73.52266         0.45254
C         43.02379        35.92908        -1.81467
C         42.96858        37.20105        -1.28507
C         41.62133        37.82858        -1.01796
C         42.89281        39.99005        -0.55939
C         41.65440        39.33403        -0.90516
C         42.88558        41.37914        -0.26497
C         41.66305        42.15998        -0.57311
C         42.68297        44.19278         0.64869
C         41.57979        43.60694        -0.18262
C         42.64296        45.65886         0.92974
C         41.35223        46.23714         0.82917
C         42.91106        48.61403         1.62255
C         41.05709        47.53922         1.32630
C         42.75380        49.96278         1.29555
C         41.41978        50.54668         1.00641
C         42.64597        52.80444         1.21183
C         41.39456        52.05271         0.93603
C         42.62029        54.11207         1.62454
C         41.32559        54.78656         1.90529
C         42.56955        57.04917         2.17227
C         41.29708        56.29173         1.98878
C         42.62832        58.51733         1.94452
C         41.38836        59.23983         1.74971
C         42.53419        61.39483         2.20108
C         41.34735        60.61449         1.79971
C         42.58623        62.84822         1.92024
C         41.42422        63.53098         1.54845
C         42.56427        65.67869         2.03659
C         41.40581        64.95279         1.41229
C         42.58856        67.14310         1.69501
C         41.42753        67.83420         1.41903
C         42.61348        70.00568         1.41845
C         41.42312        69.30252         1.35054
C         42.66958        71.47765         1.38316
C         41.34303        72.21232         1.26914
C         42.64293        74.26978         0.81960
C         41.39786        73.61460         0.81946
C         45.53770        33.30952        -2.71468
C         44.32261        33.95576        -2.56689
C         45.47000        35.88186        -1.56249
C         44.26747        35.25078        -1.99260
C         45.42122        37.22625        -1.04688
C         44.17430        37.89192        -0.93238
C         45.33662        39.96866        -0.24176
C         44.12760        39.27346        -0.53133
C         45.30192        41.35221         0.13031
C         44.04961        42.03896         0.15631
C         45.21345        44.18019         1.00534
C         43.95435        43.40506         0.74632
C         45.12513        45.66145         0.96323
C         43.91613        46.35609         1.11723
C         45.14531        48.58300         0.83623
C         44.00057        47.83191         1.21190
C         45.12513        49.99010         0.78351
C         43.91013        50.69331         0.93144
C         45.11665        52.85145         0.88957
C         43.90263        52.13511         0.94647
C         45.15683        54.21554         1.33632
C         43.90132        54.81126         1.87475
C         45.10551        57.05981         1.96335
C         43.86537        56.29498         2.17694
C         45.11049        58.43978         2.05866
C         43.84467        59.16993         2.07786
C         45.13866        61.35545         2.18882
C         43.85938        60.62413         2.30381
C         45.10628        62.79999         2.09729
C         43.86895        63.53000         1.98085
C         45.11376        65.65267         1.84486
C         43.88663        64.94305         1.88437
C         45.13815        67.10351         1.75460
C         43.86635        67.83570         1.92284
C         45.11565        69.97832         1.27590
C         43.88014        69.33438         1.72626
C         45.06068        71.32282         0.78904
C         43.90495        72.15257         0.93976
C         45.09052        74.40142         0.87216
C         43.89677        73.59208         0.84750
C         46.72509        33.92043        -2.26892
C         47.97697        35.77215        -1.13948
C         46.70161        35.18676        -1.69153
C         47.90145        37.25423        -0.85174
C         46.63394        37.91495        -0.72628
C         47.80414        39.99527        -0.07806
C         46.59337        39.28675        -0.33538
C         47.75216        41.36881         0.27307
C         46.52438        42.03958         0.39156
C         47.77517        44.23286         0.50785
C         46.53103        43.47016         0.80771
C         47.66771        45.69590         0.27249
C         46.36736        46.38995         0.58740
C         47.68093        48.60604         0.43477
C         46.43490        47.86834         0.77919
C         47.54345        50.01178        -0.05115
C         46.27789        50.75401         0.23268
C         47.52090        52.96497         0.31083
C         46.33993        52.22677         0.44632
C         47.58664        54.33331         0.82845
C         46.36384        54.89556         1.40551
C         47.63676        56.99575         2.18901
C         46.34924        56.26126         2.00449
C         47.59466        58.48798         2.18194
C         46.36866        59.17261         2.15021
C         47.59993        61.33036         2.44509
C         46.32711        60.62146         2.22921
C         47.61157        62.84920         2.31960
C         46.32647        63.52759         2.04042
C         47.62253        65.64990         1.88750
C         46.33264        64.92595         1.88580
C         47.61474        67.13815         1.63560
C         46.30730        67.81915         1.53520
C         47.53525        69.86968         0.83203
C         46.31107        69.23623         1.22762
C         47.51841        71.23241         0.40099
C         46.25559        71.81795         0.21320
C         47.64979        74.29581         0.60555
C         46.31706        73.95345         0.35201
C         49.07246        37.95300        -0.66056
C         50.27962        40.02696        -0.16616
C         49.07734        39.33565        -0.27645
C         50.33877        41.40357         0.30964
C         49.00677        42.10888         0.54420
C         50.17359        44.28935        -0.19452
C         48.96409        43.58171         0.39815
C         50.20176        45.75033         0.24007
C         48.92674        46.49799         0.20658
C         50.13278        48.65937        -0.13996
C         48.93227        47.86605         0.13832
C         50.05632        50.02374        -0.37076
C         48.78290        50.78648        -0.37248
C         50.03344        53.11886        -0.42970
C         48.74360        52.32132        -0.27187
C         49.99601        54.59063         0.07729
C         48.77533        55.08154         0.81593
C         50.08491        57.13916         1.75934
C         48.91788        56.19998         1.88400
C         50.09495        58.45293         2.13076
C         48.84948        59.21076         2.24911
C         50.11998        61.38741         2.37980
C         48.86479        60.59215         2.31961
C         50.09604        62.80068         1.93335
C         48.88202        63.51825         1.92562
C         50.06238        65.56836         1.26279
C         48.87008        64.89330         1.63015
C         50.03512        67.00341         0.92391
C         48.81020        67.76591         1.03599
C         49.87766        69.79926         0.03314
C         48.74117        69.11324         0.67971
C         49.93504        71.27832        -0.00308
C         48.72444        72.00105         0.15657
C         50.02271        74.07046         0.11841
C         48.76719        73.45049         0.24236
C         51.55111        42.21751         0.08933
C         52.69619        44.35399        -0.22838
C         51.50852        43.58942         0.00142
C         52.69864        45.75173        -0.30849
C         51.47538        46.51185         0.05521
C         52.56497        48.60256        -0.64601
C         51.41285        47.95947        -0.24544
C         52.53011        50.02927        -1.04198
C         51.17885        50.77303        -1.04167
C         52.49668        52.82162        -0.93137
C         51.28070        52.26230        -0.63893
C         52.57803        54.90324        -0.15274
C         51.25202        55.44818         0.23613
C         52.63367        56.99061         1.76868
C         51.32204        56.57682         1.18853
C         52.70077        58.42986         2.17257
C         51.40353        59.15455         2.35661
C         52.64768        61.34454         1.84433
C         51.43503        60.65567         2.35069
C         52.56434        62.69638         1.54521
C         51.30891        63.44978         1.59099
C         52.50719        65.50272         0.79011
C         51.26533        64.82214         1.20937
C         52.48880        66.96348         0.48328
C         51.19596        67.66580         0.54994
C         52.44549        69.79531        -0.13330
C         51.18898        69.03083         0.00196
C         52.40386        71.16058        -0.33551
C         51.17342        71.91901        -0.23108
C         52.42791        74.06901        -0.31035
C         51.21940        73.36393        -0.18369
C         53.86254        46.48775        -0.59393
C         55.05926        48.61296        -0.74296
C         53.84424        47.89985        -0.68767
C         55.10219        50.02464        -0.73779
C         53.85688        50.76118        -1.03977
C         54.94082        52.89787        -0.36885
C         53.81661        52.21711        -0.79809
C         54.96393        54.18594         0.46305
C         53.75849        55.10696         0.47286
C         55.14216        57.02650         1.29842
C         53.87454        56.26570         1.39926
C         55.14036        58.43691         1.51533
C         53.94340        59.16717         1.83774
C         55.11978        61.25808         1.49876
C         53.89948        60.57730         1.72995
C         55.08557        62.68477         1.15136
C         53.78408        63.41397         1.11072
C         54.99450        65.62487         0.88229
C         53.80317        64.88226         1.06825
C         55.00021        66.99184         0.60287
C         53.73486        67.79958         0.70346
C         54.98239        69.82492        -0.15243
C         53.72379        69.00271        -0.27652
C         54.95897        71.20142        -0.48683
C         53.65650        71.86033        -0.72012
C         54.96187        74.09503        -0.63074
C         53.66776        73.43176        -0.71597
C         56.26148        50.76789        -0.53939
C         57.41159        52.89920        -0.23509
C         56.22442        52.18857        -0.37661
C         57.44890        54.31457         0.01930
C         56.24924        54.98678         0.37285
C         57.52899        57.07356         0.65457
C         56.29320        56.35077         0.78461
C         57.56306        58.46809         0.90832
C         56.36381        59.15667         1.30008
C         57.57800        61.30674         1.15089
C         56.35249        60.57255         1.37644
C         57.58845        62.71575         1.10011
C         56.33929        63.47174         1.30355
C         57.53154        65.63185         0.62211
C         56.30562        64.95161         1.10677
C         57.52488        66.96628         0.30831
C         56.28929        67.77388         0.66097
C         57.40637        69.77857        -0.30691
C         56.22046        69.13110        -0.00723
C         57.42159        71.24062        -0.39970
C         56.15114        71.94855        -0.57190
C         57.41911        74.06768        -0.88986
C         56.16685        73.38340        -0.71894
C         58.66855        55.01878        -0.04276
C         59.92488        57.14671         0.03621
C         58.72356        56.40847         0.21862
C         59.96994        58.53736         0.23169
C         58.77117        59.19376         0.67556
C         59.97407        61.33229         0.59318
C         58.77483        60.60723         0.82907
C         59.99591        62.73089         0.77553
C         58.77760        63.42106         0.87384
C         59.98988        65.47445        -0.11866
C         58.72810        64.81364         0.37295
C         59.92976        66.92891        -0.35903
C         58.72227        67.60650        -0.20213
C         59.91183        69.73622        -1.00121
C         58.63379        69.01870        -0.60439
C         59.95381        71.22540        -0.97345
C         58.72426        71.97276        -0.62221
C         59.88055        74.08360        -1.17976
C         58.65657        73.41594        -0.95713
C         61.12956        59.31847        -0.13345
C         62.02693        61.69997        -0.60525
C         61.12552        60.69871        -0.01587
C         63.36716        61.93890        -0.29867
C         61.25508        63.53477         0.89321
C         62.46058        65.31381        -0.43650
C         61.31093        64.79747         0.08957
C         62.38327        66.70592        -1.08406
C         61.15110        67.57968        -0.76839
C         62.42438        69.69313        -1.23262
C         61.16208        68.94550        -0.99685
C         62.38946        71.20071        -1.39310
C         61.09568        71.92218        -1.26078
C         62.34338        74.07836        -1.26452
C         61.11752        73.38763        -1.24309
C         64.06586        63.17442        -0.41633
C         64.91621        65.33563        -0.80712
C         63.76803        64.58938        -0.53683
C         64.98063        66.79476        -0.85664
C         63.65410        67.51036        -0.84547
C         64.73413        69.25884        -2.13811
C         63.62000        68.84355        -1.48619
C         64.70513        71.45727        -2.34640
C         63.54761        72.02508        -1.83401
C         64.84969        74.06157        -1.50591
C         63.59397        73.41431        -1.48637
C         66.18843        67.51134        -1.31461
C         67.17897        69.67568        -2.11989
C         66.08248        68.77533        -1.89507
C         67.16702        71.10795        -2.16651
C         65.99755        71.96574        -2.11706
C         67.34839        73.92959        -1.58500
C         66.06065        73.34029        -1.71745
C         68.41364        71.77945        -2.03927
C         68.48850        73.15349        -1.78215
O         47.31243        48.38318         1.85341
O         51.18010        56.83249        -0.28147
O         44.01430        55.32080         3.25364
O         27.27323        69.14423        -2.87737
O         41.55118        51.24721        -0.28458
O         64.59531        70.27773        -3.07902
O         47.61937        62.21546         3.63211
O         43.09401        61.01814         3.49489
O         49.95391        44.25401        -1.58684
O         49.77620        54.23693        -1.32584
O         53.24979        50.29933        -2.29811
O         56.39254        64.37474         2.47108
O         46.16845        72.92072        -0.61831
O         48.52634        51.62601        -1.53413
O         33.84394        73.20828         0.79234
O         45.98870        43.68778         2.16165
O         52.50525        66.01983        -0.62477
O         31.51882        71.72332        -2.40015
O         39.69883        62.19318         2.69518
O         53.54566        72.59162        -1.94223
O         64.33657        67.38058         0.40405
O         58.98097        69.23526        -2.03597
O         37.25414        53.31406         2.17522
O         38.34156        66.46877        -1.19561
O         33.79083        65.08955        -2.29967
O         59.12182        64.76133        -1.07583
O         53.25638        56.07574         2.73425
O         42.98796        43.41965         1.86644
O         40.50999        54.18281         2.96647
O         36.77840        55.64914        -0.84111
O         24.16066        69.39941        -2.32184
O         46.55791        50.20494        -1.11244
O         29.82553        64.80490        -2.26851
O         41.98715        43.23719        -1.54579
O         52.53893        54.15635        -1.31601
O         41.87294        48.03112         2.34907
O         62.10291        63.27534         1.73945
O         58.26789        71.74491         0.76109
O         37.94076        69.49678         2.11756
O         23.68008        73.24310        -1.52472
O         28.41457        71.77408        -3.25569
O         43.89365        68.74618         3.08033
O         50.32569        69.14628        -1.19550
O         40.56126        57.66555         0.07407
O         50.91488        61.20766         3.60629
O         47.81359        66.59627         2.99829
O         62.71111        70.57921        -0.06559
O         50.99999        46.10141         1.40748
O         42.00224        72.05186         2.56531
O         54.41002        62.87606        -0.14682
O         41.66977        56.77366         3.30968
O         29.77291        67.39647        -2.61605
O         52.15382        58.64243         3.51743
O         30.88962        63.37429         0.80855
O         46.96818        56.39504         3.35221
O         36.20720        60.80719        -1.34724
O         25.61898        71.99793        -2.74352
O         31.90848        69.49348         0.44120
O         46.72457        46.03122        -0.80961
O         49.76651        41.60091         1.67746
O         34.56906        67.95726        -2.56240
H         34.52081        67.04649        -2.93806
O         31.48504        60.67355         1.76948
H         31.33984        61.60641         2.04472
O         28.86464        69.40033         0.36639
H         29.74948        69.38778         0.79915
O         54.95492        53.61969         1.82750
H         54.79890        54.35392         2.46246
O         49.26611        55.41919         3.06701
H         48.47261        55.44137         3.66086
O         39.27616        50.50064        -1.07881
H         40.14882        50.93489        -1.24038
O         50.76750        50.83018        -2.42933
H         51.58527        50.91861        -2.97238
O         64.09072        60.88865         0.18829
H         64.97081        61.19440         0.48284
O         40.65446        37.40757        -1.98495
H         40.93326        37.73965        -2.86271
O         39.66861        50.01303         2.57743
H         40.24362        49.43763         3.12747
O         53.73130        68.42383        -1.60706
H         53.45644        69.10894        -2.25170
O         53.64786        68.33643         2.04893
H         54.56933        68.53461         2.35038
O         49.08980        35.47476        -1.99201
H         48.92054        35.87657        -2.86850
O         34.90754        56.96915         2.02896
H         34.07796        57.45604         2.22266
O         56.44352        68.12624         2.09838
H         56.58015        67.28887         2.59469
O         23.92348        67.63845         0.92591
H         24.02748        66.70396         1.19991
O         34.35145        52.19821        -2.12834
H         34.38426        53.17512        -2.31371
O         62.34849        66.49681        -2.52388
H         61.48898        66.08300        -2.75274
O         34.41312        54.95905        -1.94801
H         35.32991        55.33293        -1.99871
O         42.28926        65.65471         3.48312
H         42.95692        66.22323         3.92462
H         23.86504        75.07708         1.22306
H         25.97403        75.16293        -0.08392
H         28.18871        75.15785        -0.88851
H         30.37327        75.26066        -1.22263
H         32.80457        75.69158        -1.14804
H         35.73045        75.17436        -1.17898
H         37.83553        75.24969        -0.18304
H         40.18896        75.30218         0.19620
H         42.65499        75.35708         0.64947
H         45.02069        75.39741         1.33378
H         47.87753        75.24648         1.11044
H         50.07925        75.16610         0.20602
H         52.45196        75.13741        -0.04762
H         54.98440        75.18670        -0.49874
H         57.38943        75.15736        -1.04129
H         59.88190        75.17960        -1.27938
H         62.33656        75.17242        -1.14741
H         64.90537        75.13559        -1.27508
H         67.43916        74.99236        -1.32011
H         22.31377        69.45033         0.43634
H         21.41133        71.53586         1.26812
H         21.82977        73.87196         1.94779
H         24.44174        65.06464        -0.67727
H         23.25049        67.19320        -1.00602
H         26.95277        60.65288        -1.15300
H         25.59899        62.92208        -1.16305
H         29.44665        56.54454        -0.79321
H         28.27538        58.56280        -1.00520
H         31.83251        52.22785        -0.50088
H         30.59681        54.40027        -0.50716
H         34.34012        47.89535        -0.62551
H         33.11520        50.02508        -0.69779
H         36.97924        43.71085        -1.06040
H         35.65072        45.78534        -0.79359
H         39.55378        39.47724        -1.27984
H         38.28833        41.61443        -1.22920
H         42.08929        35.42539        -2.10293
H         41.26066        37.42961        -0.02549
H         45.57919        32.30895        -3.16694
H         43.39077        33.47448        -2.89623
H         47.68588        33.39692        -2.37252
H         48.19117        35.25298        -0.16133
H         50.03384        37.43404        -0.78838
H         51.21153        39.54045        -0.49269
H         52.51814        41.69110         0.02916
H         53.64988        43.81715        -0.36094
H         54.81664        45.95763        -0.73529
H         56.00263        48.05143        -0.66857
H         57.22573        50.25120        -0.42044
H         58.36787        52.36370        -0.33309
H         59.58559        54.48561        -0.33379
H         60.82411        56.61707        -0.31279
H         61.97432        58.80294        -0.61295
H         61.50436        62.52930        -1.10954
H         65.15218        63.02017        -0.27629
H         65.86281        64.79689        -0.97046
H         67.17283        67.04358        -1.16182
H         68.18228        69.23265        -1.99725
H         69.34306        71.19351        -2.09243
H         69.47896        73.62027        -1.68327
