         276
 CSIRO Nanostructure Databank - Neutral Graphene Oxide Data Set
C        -11.05496         0.69797         0.30087
C         -9.88934         1.53369         0.01885
C         -8.72698         0.83983        -0.67192
C         -7.39788         1.48430        -0.28820
C         -6.08650         0.83513        -0.73726
C         -4.86797         1.47294        -0.06431
C         -3.74087         0.73771         0.15948
C         -2.51380         1.42567         0.62160
C         -1.21333         0.69780         0.54805
C          0.02096         1.52100         0.20009
C          1.33012         0.73149         0.34674
C          2.62032         1.45559         0.49611
C          3.94705         0.69846         0.69001
C          5.07969         1.60681         1.23247
C          6.36833         0.78795         1.05710
C          7.59606         1.50973         0.58625
C          8.48960         0.70051        -0.32486
C          9.73644         1.37358        -0.79136
C         10.95689         0.56038        -0.69138
C         -9.86162         2.87359         0.25184
C         -8.71445         3.72311        -0.27541
C         -7.41057         2.95932        -0.06336
C         -6.10495         3.60153        -0.36911
C         -4.89018         2.92805         0.18545
C         -3.80696         3.63187         0.65701
C         -2.46001         2.93999         0.45525
C         -1.22239         3.53332         1.11033
C          0.07398         2.88090         0.85529
C          1.24787         3.58974         1.01451
C          2.60292         2.86414         1.08499
C          3.80227         3.65685         0.55787
C          5.11410         2.96277         0.51839
C          6.36613         3.76302         0.62549
C          7.70067         3.04862         0.44257
C          8.29533         3.36628        -1.00480
C          9.65594         2.69625        -1.07572
C         -8.62928         5.18543         0.13803
C         -7.53536         5.86013         0.62852
C         -6.42980         5.21769         1.39346
C         -5.04853         5.88392         1.51107
C         -3.80845         5.16207         0.78444
C         -2.52931         5.76096         1.40050
C         -1.22272         5.02834         1.34018
C          0.01958         5.74966         1.02356
C          1.21204         5.04376         1.03292
C          2.41785         5.68231         0.42143
C          3.74395         5.12731         0.88913
C          4.99940         5.88502         0.48879
C          6.27772         5.13363         0.72782
C          7.21421         5.57017        -1.62903
C          8.33596         4.84961        -1.29183
C         -7.39602         7.28533         0.41919
C         -6.20248         7.98723         0.52845
C         -4.99527         7.34366         1.04863
C         -3.77419         7.96573         1.14466
C         -2.48162         7.25768         1.40205
C         -1.19508         7.87079         0.95381
C         -0.06730         7.16034         0.62952
C          1.15258         7.91234         0.08248
C          2.31909         6.98936        -0.26499
C          3.57242         7.60384        -0.93276
C          4.91895         7.12016        -0.36533
C          6.08363         7.73173        -1.08509
C          7.15442         7.04242        -1.57864
C         -6.20658         9.27838        -0.16069
C         -5.16731        10.03799        -0.61608
C         -3.78618         9.86086        -0.22034
C         -2.65815        10.16411        -0.93586
C         -1.33107         9.70841        -0.53683
C         -0.26654         9.65561        -1.37576
C          1.00096         8.83851        -1.21803
C          2.27526         9.69196        -1.19263
C          3.50160         9.12801        -1.00171
C          4.76863         9.82791        -1.12845
C          5.96796         9.18170        -1.19898
C        -11.14165        -0.60735        -0.03703
C        -10.00948        -1.37552        -0.69469
C         -8.68396        -0.67863        -0.32112
C         -7.45887        -1.34455        -1.00750
C         -6.18669        -0.67775        -0.48026
C         -4.93903        -1.44228        -0.21803
C         -3.63466        -0.68590        -0.35707
C         -2.45592        -1.49126         0.16656
C         -1.13467        -0.75551         0.06805
C         -0.02673        -1.41297         0.85426
C          1.28934        -0.66001         0.90172
C          2.55186        -1.36094         1.31803
C          3.89286        -0.61840         1.49358
C          5.12920        -1.41134         1.15931
C          6.26057        -0.71204         0.86986
C          7.55063        -1.43958         0.66438
C          8.43618        -0.79092        -0.37886
C          9.60199        -1.43289        -1.21507
C         10.90423        -0.78898        -0.74652
C        -10.01772        -2.86518        -0.27121
C         -8.73189        -3.61601        -0.60613
C         -7.45966        -2.86727        -0.83827
C         -6.18004        -3.60506        -0.57728
C         -4.81713        -2.93543        -0.48638
C         -3.85164        -3.56329         0.54895
C         -2.52610        -2.81685         0.46176
C         -1.36720        -3.58230         1.00293
C         -0.07137        -2.85574         1.19535
C          1.23259        -3.61042         1.17747
C          2.53211        -2.86716         1.19430
C          3.79014        -3.62289         1.53491
C          5.10087        -2.86676         1.47559
C          6.36039        -3.63950         1.32221
C          7.63060        -2.85849         1.13159
C          8.98107        -3.88466        -0.54627
C          9.55038        -2.93822        -1.37468
C         -8.70664        -4.97615        -0.71119
C         -7.45590        -5.73659        -0.83562
C         -6.27359        -5.05022        -0.22023
C         -5.00378        -5.77867         0.05405
C         -3.71653        -5.07750         0.33243
C         -2.58431        -5.80574         0.57762
C         -1.38245        -5.07587         1.10167
C         -0.08220        -5.80650         1.38433
C          1.26134        -5.05530         1.66275
C          2.55571        -5.76734         1.17255
C          3.75788        -5.10066         1.29208
C          5.06947        -5.83260         1.28159
C          6.31952        -5.00059         1.26555
C          7.80236        -6.04117        -0.16993
C          8.59604        -5.18430        -0.97630
C         -7.33354        -6.99728        -1.33523
C         -5.99555        -7.63880        -1.45054
C         -4.85174        -7.06192        -0.67933
C         -3.74015        -8.00212        -0.26297
C         -2.54182        -7.30808         0.43341
C         -1.21988        -8.06219         0.53623
C         -0.02200        -7.27465         1.12719
C          1.33560        -7.87115         1.12418
C          2.53061        -7.21776         0.96814
C          3.78270        -7.91628         0.38845
C          5.09284        -7.30999         0.91343
C          6.41958        -8.00830         0.45934
C          7.16892        -7.19118        -0.57464
C         -5.79385        -9.04274        -1.90783
C         -4.56622        -9.59617        -1.95303
C         -3.32156        -8.86264        -1.47138
C         -2.16688        -9.74311        -1.09397
C         -1.09003        -9.32423        -0.32235
C          0.10094       -10.08868        -0.53930
C          1.34428        -9.89202         0.10443
C          2.62745       -10.07968        -0.33773
C          3.78596        -9.50862         0.47161
C          5.06554       -10.05745        -0.10866
C          6.21658        -9.39153        -0.11160
O          5.08855        -6.93513         2.29649
O         -6.65650         4.26686         2.13819
O          2.07842         5.75139        -1.00867
O          1.25336        -9.24266         1.35676
O         -3.63105         9.34620         1.07614
O         -5.81295        -1.05719         0.87661
O          4.41334        -3.14781         2.76897
O         -7.35606         2.01390         1.05214
O          5.03203         7.23360         1.09466
O         -1.75266        -4.25404         2.26350
O          2.79711         2.65849         2.47370
O          3.55442         7.29403        -2.30089
O          2.13538         1.07887        -0.82881
O         -0.32622        -6.76211         2.46913
O         -6.01588         4.51564        -1.18944
O         -1.24904         4.06607         2.45493
O          7.47771         1.08822         1.97139
O          7.55225        -5.66116         1.17328
O          1.95708        -3.36094        -0.07049
O         -2.20823        -8.10689         1.61071
O          8.04635        -1.80167         2.01594
O         -6.69792        -3.47763        -1.94756
O         -5.99096        -5.56371         1.11831
O          7.62038         0.00499        -1.30254
O         -1.85303         0.90006         1.82228
O         -4.98013        -6.75251        -2.11176
O          4.31012         3.15967        -0.71361
O         -0.35273        -1.84306         2.20429
O         -2.52874         6.49670         2.65539
O         -1.19662         9.26614         0.80287
O          8.79552        -3.59391         0.80462
O          1.69669        -0.73856         2.30748
O          1.39021        -4.96030         3.08929
H          0.93626        -5.73951         3.48717
O         -2.78122        -8.03521        -2.53463
H         -3.52884        -7.47647        -2.86626
O          3.74820        -9.91713         1.84131
H          2.83132        -9.79555         2.17778
O         -2.23765         3.22148        -0.95555
H         -2.91375         2.75270        -1.48806
O         -3.72607         5.66920        -0.56757
H         -4.49316         5.31865        -1.09303
O          3.99573        -0.36786         2.91577
H          3.99630        -1.24536         3.36743
O         -4.17494        -3.10331        -1.77815
H         -4.89750        -3.25827        -2.43579
O         -7.50013        -1.09872        -2.42853
H         -8.31448        -1.54369        -2.76930
O         -4.36797        -8.89153         0.68278
H         -3.71933        -9.05841         1.40939
O          7.39168         2.69980        -1.92529
H          7.81886         2.67019        -2.80657
O         -0.71738        -0.79397        -1.31047
H         -1.38883        -0.30965        -1.84428
O        -10.25459        -2.96663         1.13512
H         -9.62450        -2.36129         1.59057
O          7.26023        -8.16692         1.61222
H          6.80289        -7.74643         2.37870
O          4.86212         2.01148         2.58904
H          4.56163         1.23371         3.12886
O          0.98772         7.99905        -2.37492
H          1.90270         7.62268        -2.53906
O         -4.40118        -3.35145         1.85278
H         -3.72951        -3.65290         2.50792
O          3.71001         5.19007         2.33349
H          3.83400         6.12869         2.59323
O          6.06736         4.99419        -2.05411
H          6.16769         4.00784        -2.03033
O         -8.91355         1.04010        -2.09841
H         -8.10452         0.68111        -2.55000
O          8.67614         3.49627         1.38521
H          8.41240         3.15432         2.26633
O          3.77280        -7.57443        -1.02068
H          3.05479        -8.08153        -1.45725
O         -3.42932        -0.52484        -1.80965
H         -3.46843        -1.44696        -2.18082
O         -0.17281         1.79346        -1.21272
H          0.72054         1.95326        -1.60243
O         -5.95733         1.05417        -2.15937
H         -5.12943         0.60412        -2.45135
O          7.31382         5.90931         1.11917
H          6.96057         6.81913         1.25837
O        -10.17518        -1.35495        -2.13189
H        -10.20640        -0.40651        -2.40659
O          9.46757        -0.98237        -2.58736
H          8.67240        -0.39388        -2.62676
O         -4.83068         5.85775         2.92808
H         -5.28055         5.05508         3.28008
O          1.62158         8.75237         1.16109
H          0.85465         9.28399         1.47145
O          4.39032         0.30335        -0.62443
H          4.26991         1.07543        -1.22410
O         -8.55159        -0.81706         1.10155
H         -7.78564        -0.29369         1.42731
O         -8.92014         3.81866        -1.71369
H         -9.01974         2.90205        -2.07406
H         11.81415        -1.39598        -0.63648
H         11.91253         1.07904        -0.51944
H         10.55019         3.28276        -1.33503
H          9.20204         5.40167        -0.90168
H          8.01211         7.61139        -1.97294
H          6.87948         9.75655        -1.42514
H          4.73553        10.91901        -1.27334
H          2.18388        10.78708        -1.27740
H         -0.42712        10.01948        -2.40292
H         -2.76368        10.58484        -1.94583
H         -5.39460        10.84689        -1.32818
H         -7.20476         9.57289        -0.52604
H         -8.25457         7.79736        -0.04493
H         -9.40823         5.80565        -0.33908
H        -10.73266         3.36534         0.71189
H        -11.91647         1.19050         0.77819
H        -12.07042        -1.15858         0.17300
H        -10.87362        -3.37185        -0.78617
H         -9.65134        -5.53980        -0.65765
H         -8.20983        -7.53667        -1.72523
H         -6.67283        -9.60822        -2.25329
H         -4.44702       -10.62047        -2.33957
H         -2.03309       -10.66309        -1.68601
H          0.07329       -10.79764        -1.38027
H          2.82214       -10.56783        -1.30333
H          5.02892       -11.08605        -0.49974
H          7.12534        -9.87139        -0.50574
H          7.28617        -7.56521        -1.60189
H          8.80104        -5.48462        -2.01342
H          9.77007        -3.26793        -2.40256
