         300
 CSIRO Nanostructure Databank - Neutral Graphene Oxide Data Set
C         31.69489        31.85488         3.64101
C         31.40825        33.02255         3.33619
C         30.98845        36.21987         2.59371
C         30.78268        37.35056         2.13546
C         30.35749        40.51990         1.13924
C         30.31194        41.74496         0.97771
C         33.74392        28.88807         2.43256
C         32.90310        29.54641         3.07325
C         33.15565        31.52718         1.82563
C         32.53694        30.92705         2.92278
C         32.63570        32.86534         1.28682
C         32.22478        33.88884         2.41347
C         32.47302        35.79766         0.68035
C         31.63480        35.15350         1.81256
C         32.56739        37.32942         0.47536
C         31.49056        38.19488         1.16798
C         32.65171        40.36752         0.45478
C         31.59102        39.67774         1.42842
C         32.79058        41.88724         0.73495
C         31.43178        42.68597         0.95743
C         32.57679        44.55208        -0.13099
C         31.57870        43.98914         0.33897
C         35.62220        27.27589         0.12179
C         35.49457        28.67822         0.45259
C         34.33343        29.28087         1.14813
C         35.06990        31.53406         0.13001
C         34.07656        30.76543         0.93737
C         34.68935        32.78122        -0.27710
C         33.58896        33.53992         0.30619
C         35.35957        36.08177        -0.25464
C         33.45960        34.88045         0.05603
C         35.21713        37.37564         0.13674
C         33.86255        38.09013        -0.06769
C         35.15342        40.28515        -0.10597
C         33.97695        39.54376         0.55945
C         35.12183        41.77760        -0.19640
C         33.92905        42.58423         0.14397
C         35.08256        44.67990        -0.73237
C         33.79379        43.88083        -0.72086
C         35.35330        45.90978        -1.50567
C         37.56682        27.32696        -1.23693
C         36.27884        26.77004        -0.80806
C         37.52668        28.88321        -1.08787
C         36.48454        29.43687        -0.12274
C         37.71282        31.67274        -0.41270
C         36.44768        30.93617        -0.02473
C         37.81801        33.14895        -0.84149
C         36.60376        33.99485        -0.61650
C         37.76291        35.92583         0.54688
C         36.55437        35.24749        -0.09819
C         37.74266        37.34095        -0.08058
C         36.50388        38.14845         0.44575
C         37.75799        40.32321         0.22331
C         36.51748        39.53989        -0.24519
C         37.72985        41.80370         0.00057
C         36.42318        42.52800        -0.13483
C         37.71431        44.55170        -1.08271
C         36.40499        43.99310        -0.49734
C         37.76113        46.15789        -1.06600
C         36.42686        46.47531        -1.73723
C         39.95490        24.44080        -0.50593
C         38.95435        25.11813        -0.75822
C         40.04253        27.28318        -0.49320
C         38.81591        26.53429        -1.11324
C         40.15297        28.70677        -1.05755
C         38.89950        29.53623        -0.92582
C         40.24401        31.65236        -1.15333
C         38.95234        30.89100        -0.79039
C         40.33118        33.08371        -0.61320
C         39.06556        33.74966        -0.21998
C         40.39691        35.89789         0.47243
C         39.06834        35.14356         0.32825
C         40.35556        37.36395         0.02966
C         39.08282        38.14236        -0.03026
C         40.37589        40.46552         0.06210
C         39.09820        39.64032         0.30945
C         40.16077        41.78820        -0.64820
C         38.98961        42.47038        -0.40940
C         40.27924        44.52345        -0.83026
C         38.94310        43.98773        -0.29277
C         40.27634        46.06291        -0.91126
C         39.05471        46.65957        -1.72206
C         40.27251        48.83627        -1.29750
C         39.31344        48.13264        -1.61547
C         42.60894        24.31944        -0.65057
C         41.31957        24.91047        -0.26381
C         42.64071        27.13225        -0.90989
C         41.35778        26.44992        -0.45158
C         42.72069        28.59396        -0.47670
C         41.48142        29.39239        -0.95955
C         42.80434        31.55859        -1.19582
C         41.49631        30.89883        -0.65523
C         42.81686        33.11565        -0.98427
C         41.52698        33.74046        -0.46633
C         42.77463        35.87314        -0.28123
C         41.59363        35.16393        -0.12964
C         42.84218        37.32396        -0.32590
C         41.65585        38.11733         0.09282
C         42.80563        40.28628        -0.80095
C         41.61388        39.59625        -0.18158
C         42.78368        41.76943        -0.54945
C         41.45248        42.36557        -0.07116
C         42.78373        44.67168        -0.51178
C         41.48673        43.93936         0.04103
C         42.79209        46.17127        -0.03349
C         41.51936        46.86847        -0.61107
C         42.78695        48.92758        -0.38394
C         41.67485        48.33401        -1.20731
C         43.67865        24.95037        -0.63673
C         45.19526        27.06506        -0.59947
C         43.97543        26.34693        -0.94554
C         45.31633        28.54821        -0.84190
C         43.99135        29.29870        -1.08935
C         45.36555        31.53148        -0.65220
C         44.03137        30.77877        -0.55312
C         45.29123        32.92567        -0.10368
C         44.00946        33.66679        -0.24717
C         45.31064        35.86896        -0.47486
C         44.02659        35.11336        -0.64305
C         45.19481        37.16651        -0.90977
C         43.99360        37.95637        -0.76141
C         45.40126        40.23851         0.03591
C         44.07736        39.44256        -1.13627
C         45.30318        41.73304         0.25328
C         44.04314        42.47072        -0.07889
C         45.38664        44.69817         0.12235
C         44.12322        43.96011        -0.27184
C         45.31244        46.22815         0.38413
C         44.17589        46.87984        -0.41193
C         43.82500        48.31919        -0.09667
C         47.55234        27.11032         0.11457
C         46.41293        26.61895        -0.08506
C         47.90961        28.49645        -0.22615
C         46.63898        29.27038        -0.63388
C         47.83434        31.49172         0.18118
C         46.66735        30.79817        -0.50953
C         47.87783        33.00280         0.25728
C         46.55618        33.70864         0.21345
C         47.83944        35.96091         0.48531
C         46.52931        35.23067         0.11919
C         47.95077        37.44115         0.39786
C         47.07870        38.25368        -0.26067
C         47.83672        40.32060         0.97947
C         46.71319        39.58041         0.28158
C         47.89680        41.78968         0.56680
C         46.65772        42.53882         0.06249
C         47.73603        44.70016         1.29746
C         46.56520        43.93348         0.60660
C         47.74232        45.98878         0.48023
C         46.75004        46.61966         0.09466
C         50.37788        28.73410         0.78636
C         49.16472        29.22319         0.11710
C         50.39506        31.47062         0.31261
C         49.13371        30.73284         0.33035
C         50.34609        32.88933         0.86854
C         49.04697        33.65833         0.56336
C         50.40839        35.82482         1.28684
C         49.07068        35.13922         0.85951
C         50.37111        37.38977         1.25505
C         49.09013        38.13604         1.05536
C         50.30935        40.29919         1.43450
C         49.18554        39.60957         0.65998
C         50.04065        41.59647         1.91466
C         49.05233        42.47185         1.22140
C         50.31321        44.34531         1.70031
C         49.04939        43.95240         1.37606
C         51.42235        29.38060         0.96952
C         52.81720        31.57887         0.70682
C         51.73591        30.66061         0.20341
C         52.74550        32.80149         0.53168
C         51.61563        33.71579         0.49613
C         52.76153        36.10737         0.88743
C         51.64476        35.19081         0.64617
C         52.78928        37.28406         1.27936
C         51.66000        38.23405         0.94491
C         52.56591        40.52822         1.91974
C         51.56123        39.61900         1.55988
C         52.82885        41.76688         2.00004
C         51.91734        42.78908         2.34308
C         51.57882        44.02532         1.76042
O         48.13262        35.57524         1.87664
O         41.02797        41.47848         1.12941
O         42.59404        41.24037        -1.88562
O         48.95658        28.72186        -1.21167
O         46.24169        28.83375        -1.96222
O         34.26092        35.49096        -0.91024
O         49.05415        42.11335        -0.25413
O         43.91010        34.89629        -2.13833
O         32.32336        42.42629         2.04909
O         31.14772        35.17107         0.47359
O         39.79015        37.75030        -1.25686
O         34.85171        40.92256        -1.38885
O         40.44251        46.74469         0.35410
O         33.34868        29.71658         0.16740
O         41.46743        25.78604         0.86274
O         37.05953        42.40532         1.18658
O         48.18533        30.96315         1.50401
O         35.75463        44.78380         0.55495
O         46.18295        34.52246         1.35489
O         39.01416        33.97528         1.23432
O         36.99762        29.38727        -2.40702
O         44.41099        42.11086         1.30715
O         43.23703        26.76789        -2.15068
O         35.47949        33.43567        -1.24580
O         37.38764        31.47619         1.00191
O         51.47444        34.59278        -0.65320
O         46.26577        31.42683        -1.77513
O         42.99175        33.74960        -2.31297
O         45.53308        39.45802         1.21377
O         38.29359        26.88147        -2.40733
O         46.33760        37.82237        -1.34487
O         40.95907        28.94943        -2.23805
O         31.34740        37.80226        -0.19950
O         38.36233        39.98141         1.50094
O         50.72341        42.14678         2.97806
O         44.32490        33.12755         1.03216
O         45.07713        44.36664        -1.28778
O         41.95037        39.04104         1.15884
O         49.58053        37.85691         2.38808
O         44.56353        39.63534        -2.30792
O         38.79867        44.35625         1.08435
H         38.06417        43.81256         1.47496
O         37.52846        36.99131        -1.45916
H         37.48945        37.81966        -1.99653
O         45.14572        46.43618         1.77558
H         44.70461        47.30203         1.92310
O         51.68623        38.40670        -0.47124
H         52.50712        38.87650        -0.72471
O         42.73658        46.30585         1.37453
H         41.79260        46.20706         1.64991
O         41.36435        44.25423         1.41302
H         40.42388        44.10192         1.68814
O         31.89395        39.84529         2.78375
H         32.01916        40.80815         2.96496
O         37.72791        44.06134        -2.42076
H         38.66602        44.06702        -2.74628
O         38.01182        33.16845        -2.28204
H         37.13315        33.04523        -2.70589
O         36.74325        39.38246        -1.66202
H         36.03611        39.88754        -2.13972
O         37.72091        46.64897         0.23535
H         36.92803        46.27885         0.69214
O         38.09536        29.46357        -3.34211
H         38.25617        28.51457        -3.58471
O         42.18399        48.20513        -2.52865
H         42.15024        49.07900        -2.97143
O         40.66346        35.98242         1.89280
H         40.56503        35.07889         2.26634
O         39.13479        46.24893        -3.07220
H         38.25616        46.37614        -3.49125
O         33.54279        43.48423        -2.05641
H         32.77478        42.87505        -2.08065
O         41.47581        31.03970         0.78343
H         40.57868        30.80980         1.10977
O         43.91667        30.62533         0.87359
H         43.83024        31.51746         1.29860
O         44.46243        46.81092        -1.78450
H         43.79494        47.35377        -2.27640
O         33.41487        34.28323         3.10126
H         33.16642        34.79711         3.89864
O         47.63923        40.29178         2.39720
H         46.70909        40.01199         2.57581
O         37.56779        35.97493         1.97238
H         37.87964        35.11473         2.33960
O         32.15156        40.35853        -0.87842
H         32.14835        39.43404        -1.22771
O         36.61039        38.37360         1.85669
H         36.88294        37.53385         2.30177
O         50.37904        32.73763         2.30692
H         49.61023        32.17837         2.56451
O         40.33391        43.97395        -2.15680
H         41.17570        44.25271        -2.59455
O         39.62818        27.51149         0.86885
H         40.08145        26.84090         1.43798
O         42.69372        44.75335        -1.94987
H         43.61313        44.92008        -2.28361
O         46.76925        42.52779        -1.38049
H         47.55989        43.05162        -1.63258
O         31.42142        32.54622         0.58563
H         31.58313        31.78041        -0.00446
O         43.78730        29.21343        -2.48512
H         44.61387        29.48318        -2.94367
O         40.27469        31.70399        -2.59178
H         39.46430        32.18575        -2.89135
O         51.96738        30.32285        -1.13135
H         52.79923        29.81295        -1.20623
O         49.39080        39.60373        -0.75354
H         49.50509        40.53280        -1.06313
O         42.90152        31.37852        -2.59644
H         42.01577        31.53333        -3.00396
O         34.21029        39.43802         1.95833
H         35.13960        39.14438         2.14841
O         42.69802        28.47162         0.94468
H         42.76003        29.37589         1.34280
O         33.67451        38.24245        -1.48222
H         33.65500        37.34360        -1.88026
O         50.57230        35.48415         2.67052
H         49.82994        35.90632         3.16115
O         47.38139        45.04755         2.62232
H         46.57686        45.62637         2.58896
