         424
 CSIRO Nanostructure Databank - Neutral Graphene Oxide Data Set
C          1.56905         2.02657        -2.19705
C          1.49162         3.41958        -2.00432
C          2.78168         1.36656        -2.12236
C          2.63452         4.18179        -1.74066
C          1.36497         6.32809        -1.58541
C          1.32009         7.70600        -1.36716
C          2.58064         5.62358        -1.54228
C          2.48290         8.44126        -1.13061
C          1.33516        10.66252        -1.56139
C          1.34355        12.03025        -1.54535
C          2.38230         9.90878        -0.78695
C          2.44367        12.76567        -1.01662
C          1.22357        15.00011        -1.33482
C          1.28887        16.34347        -1.48606
C          2.31970        14.22646        -0.64404
C          2.47848        17.09727        -1.14533
C          2.52909        18.49738        -1.22568
C          3.97940         2.08597        -1.86249
C          3.91209         3.52183        -1.68326
C          5.20466         1.40624        -1.71041
C          5.08137         4.25468        -1.42247
C          3.77949         6.34925        -1.26951
C          3.73206         7.76657        -1.07292
C          5.03222         5.65834        -1.18435
C          4.94016         8.49136        -0.79967
C          3.69853        10.64328        -0.80853
C          3.66683        12.07072        -0.76466
C          4.91741         9.93183        -0.69315
C          4.88008        12.79638        -0.53668
C          3.64158        14.95428        -0.69137
C          3.66139        16.37191        -0.78785
C          4.84773        14.24198        -0.52697
C          4.86841        17.09533        -0.54693
C          3.70543        19.20345        -0.95694
C          4.89958        18.53262        -0.61463
C          6.40677         2.09170        -1.45104
C          6.42746         3.59546        -1.59316
C          7.60437         1.41879        -1.21232
C          7.52684         4.25463        -0.80752
C          6.21522         6.37177        -0.82651
C          6.16654         7.78744        -0.64113
C          7.44299         5.66210        -0.56036
C          7.36923         8.49904        -0.32462
C          6.13719        10.64234        -0.51603
C          6.12304        12.08279        -0.42650
C          7.37287         9.92899        -0.34174
C          7.33925        12.77848        -0.32270
C          6.05827        14.97761        -0.35469
C          6.05364        16.37454        -0.26733
C          7.32824        14.23847        -0.32423
C          7.23501        17.13436         0.21184
C          6.12619        19.24186        -0.40029
C          7.30534        18.59597        -0.01976
C          8.79052         2.10819        -0.83093
C          8.71727         3.54036        -0.55890
C          9.98996         1.42733        -0.61858
C          9.85191         4.19636        -0.03171
C          8.56033         6.35944        -0.06111
C          8.56940         7.78267        -0.01703
C          9.72127         5.59334         0.50593
C          9.76766         8.49162         0.29998
C          8.59663        10.61648        -0.18429
C          8.66505        12.08228        -0.52356
C          9.77929         9.91832         0.19371
C          9.81188        12.76826         0.18035
C          8.56348        14.96716         0.11194
C          8.49396        16.40367         0.51743
C          9.72021        14.17247         0.58093
C          9.78326        17.13751         0.59686
C          8.55663        19.25161         0.12800
C          9.77130        18.58724         0.42124
C         11.15522         2.08455        -0.13984
C         11.07520         3.50705         0.17300
C         12.37357         1.40857        -0.01006
C         12.21646         4.19774         0.61591
C         11.02107         6.35168         0.51077
C         11.00639         7.76651         0.55496
C         12.22906         5.63324         0.69195
C         12.21944         8.45759         0.78802
C         10.98343        10.63865         0.45273
C         10.99061        12.06150         0.46918
C         12.17192         9.94103         1.06111
C         12.23192        12.78873         0.72101
C         10.96430        14.96302         0.89519
C         10.94041        16.44589         0.81267
C         12.23108        14.27672         0.44731
C         12.20126        17.17313         1.21087
C         11.02360        19.25258         0.41341
C         12.24628        18.58962         0.67330
C         13.54217         2.04215         0.48631
C         13.41512         3.42814         1.08878
C         14.75850         1.37470         0.53982
C         14.69787         4.21766         1.03621
C         13.46065         6.33869         0.86685
C         13.45005         7.75871         0.90593
C         14.70825         5.60820         1.01652
C         14.71102         8.47147         1.03046
C         13.47040        10.62033         0.62790
C         13.43802        12.12576         0.81830
C         14.69176         9.97152         1.27075
C         14.68731        12.83872         0.85995
C         13.47997        15.02658         0.82918
C         13.46821        16.37974         0.98513
C         14.72691        14.25858         0.83438
C         14.75648        17.12292         1.25794
C         13.48419        19.23416         0.57673
C         14.72982        18.57963         0.81157
C         15.97570         2.01546         0.94276
C         15.92009         3.45384         1.29057
C         17.19391         1.35817         0.93794
C         17.24786         4.22851         1.30696
C         15.96091         6.34800         1.05488
C         15.91205         7.79275         1.03838
C         17.19532         5.67849         1.07974
C         17.19648         8.58490         1.19732
C         15.92101        10.70350         0.79673
C         15.92762        12.10134         0.79973
C         17.12730         9.91984         0.41502
C         17.17297        12.82214         0.74401
C         15.95216        14.94238         0.80565
C         15.93330        16.42809         0.57054
C         17.18464        14.23475         0.78009
C         17.22608        17.11820         0.89222
C         15.94327        19.23599         0.70040
C         17.21602        18.55832         0.89734
C         18.45807         2.05467         0.99862
C         18.47532         3.47933         1.02326
C         19.67886         1.36583         0.87498
C         19.67245         4.18758         0.75572
C         18.44660         6.36217         0.85516
C         18.45102         7.82123         0.81858
C         19.62268         5.63348         0.65499
C         19.60531         8.51499         0.59522
C         18.39980        10.71201         0.54140
C         18.41268        12.08844         0.67438
C         19.65941         9.97676         0.22270
C         19.66963        12.81583         0.71604
C         18.43211        14.95463         0.82082
C         18.43440        16.38768         0.94854
C         19.65987        14.23997         0.81345
C         19.67362        17.08048         1.09478
C         18.40668        19.25156         1.05598
C         19.66511        18.54141         1.47355
C         20.90949         2.06072         0.72678
C         20.88893         3.48255         0.61347
C         22.15363         1.36597         0.67739
C         22.15612         4.19462         0.20366
C         20.89052         6.33466         0.40506
C         20.89256         7.82076         0.39837
C         22.16985         5.63916         0.59617
C         22.09051         8.50685         1.01788
C         20.92578        10.68517         0.63924
C         20.90239        12.11559         0.71337
C         22.11910         9.99263         0.77257
C         22.13837        12.82314         0.83420
C         20.89784        14.95402         0.89726
C         20.88891        16.38139         1.01713
C         22.13197        14.25009         0.90307
C         22.14353        17.09041         1.06239
C         20.93764        19.23734         1.07754
C         22.12505        18.55458         0.98371
C         23.40119         2.05114         0.65694
C         23.41853         3.47347         0.56803
C         24.63945         1.36164         0.74691
C         24.62672         4.20080         0.67624
C         23.37244         6.35735         0.68736
C         23.38879         7.78645         0.79290
C         24.62467         5.63827         0.69999
C         24.59961         8.50370         0.85235
C         23.37118        10.68189         0.86290
C         23.37038        12.11246         0.86241
C         24.59482         9.95743         0.88764
C         24.60623        12.82918         0.89623
C         23.36767        14.96355         0.99480
C         23.34549        16.39435         1.06371
C         24.59974        14.25226         0.95809
C         24.62819        17.14583         1.31808
C         23.37784        19.22820         0.72912
C         24.59370        18.56867         0.80109
C         25.86594         2.05737         0.76573
C         25.86593         3.49772         0.76984
C         27.10894         1.37231         0.77878
C         27.08792         4.22261         0.86728
C         25.84121         6.35153         0.83339
C         25.83684         7.79499         0.86984
C         27.06389         5.63041         0.92792
C         27.07368         8.52025         0.87361
C         25.83000        10.67028         0.86060
C         25.83866        12.10395         0.85102
C         27.06505         9.95552         0.82035
C         27.07272        12.81240         0.77158
C         25.84985        14.97337         0.89262
C         25.86435        16.38608         0.91411
C         27.06909        14.25131         0.74021
C         27.06903        17.09015         0.72121
C         25.82830        19.22653         0.55517
C         27.05807        18.54890         0.56749
C         28.33811         2.06490         0.78011
C         28.35028         3.50777         0.86300
C         29.56428         1.36618         0.67319
C         29.57138         4.20395         0.84129
C         28.32300         6.36930         1.27801
C         28.30321         7.82473         0.90060
C         29.58884         5.64939         0.88629
C         29.52654         8.51823         0.74312
C         28.29727        10.66698         0.74102
C         28.30244        12.09796         0.71445
C         29.52407         9.94382         0.64376
C         29.55062        12.79889         0.61584
C         28.28717        14.96795         0.59678
C         28.27777        16.37650         0.58080
C         29.55049        14.24549         0.49097
C         29.59673        17.11315         0.59903
C         28.26888        19.23287         0.29570
C         29.51079        18.57556         0.22038
C         30.79595         2.04763         0.58683
C         30.81089         3.48928         0.66990
C         32.02121         1.35161         0.44247
C         32.03089         4.17924         0.57313
C         30.76580         6.36084         0.74484
C         30.76613         7.80053         0.65973
C         32.09144         5.65354         0.88352
C         31.96711         8.49539         0.36322
C         30.75614        10.64133         0.47906
C         30.74842        12.06839         0.50325
C         31.97334         9.91473         0.29106
C         32.03493        12.77038         0.42567
C         30.70683        14.93733         0.17050
C         30.63227        16.38782        -0.25527
C         32.00671        14.28420         0.22075
C         31.96150        17.10710        -0.22495
C         30.70766        19.23526        -0.07656
C         31.95681        18.54185        -0.20557
C         33.24151         2.03781         0.32790
C         33.24429         3.47835         0.36746
C         34.48054         1.34391         0.18765
C         34.47167         4.18926         0.18782
C         33.23589         6.36836         0.21228
C         33.16517         7.73671         0.03113
C         34.46623         5.62405         0.03521
C         34.30216         8.46599        -0.55462
C         33.18641        10.64019        -0.04957
C         33.21300        12.02273        -0.02804
C         34.37550         9.91594        -0.45794
C         34.33542        12.75803        -0.71961
C         33.19716        14.97725        -0.31648
C         33.15493        16.38886        -0.40118
C         34.41333        14.24458        -0.44749
C         34.40682        17.12720        -0.65754
C         33.17651        19.25455        -0.31243
C         34.41663        18.59913        -0.48715
C         35.68738         2.02994         0.07092
C         35.68837         3.47410         0.04795
C         36.94018         1.33685        -0.07554
C         36.91888         4.17128        -0.10818
C         35.67089         6.28913        -0.21478
C         35.66750         7.69420        -0.63182
C         36.92758         5.59731        -0.18852
C         36.88737         8.47361        -0.58903
C         35.59276        10.58228        -0.69028
C         35.64646        12.01778        -0.64799
C         36.84768         9.85778        -0.75387
C         36.85851        12.68800        -0.67823
C         35.63775        14.89707        -0.42032
C         35.70219        16.36354        -0.56950
C         36.89096        14.13777        -0.39397
C         36.96980        17.11386        -0.20393
C         35.63917        19.25871        -0.62939
C         36.90103        18.56637        -0.66367
C         38.13627         2.01268        -0.18201
C         38.15724         3.46395        -0.17094
C         39.39485         1.31573        -0.41219
C         39.36509         4.16622        -0.28735
C         38.14482         6.29697        -0.32914
C         38.17530         7.79955        -0.18797
C         39.37180         5.58876        -0.42184
C         39.37041         8.41629        -0.87165
C         38.07516        10.59315        -0.92995
C         38.09993        11.98573        -0.90110
C         39.27769         9.80994        -1.28185
C         39.33032        12.73457        -1.17778
C         38.20481        14.89822        -0.66155
C         38.18573        16.37648        -0.74804
C         39.31506        14.14626        -1.22176
C         39.32384        17.05304        -1.07721
C         38.07234        19.21963        -0.92541
C         39.39435        18.52988        -0.72470
C         40.57265         1.96928        -0.44575
C         40.67350         3.43398        -0.11417
C         41.80610         4.14509        -0.80049
C         40.59504         6.28184        -0.74096
C         40.56912         7.70259        -0.99095
C         41.76869         5.48959        -1.00477
C         41.79341         8.44677        -1.23563
C         40.60475        10.59091        -1.54058
C         40.56499        12.05068        -1.38271
C         41.82983         9.79804        -1.37442
C         41.77575        12.82942        -1.39759
C         40.45070        14.87904        -1.89724
C         40.48971        16.37584        -1.62105
C         41.75188        14.17537        -1.58878
C         41.55930        17.12057        -2.03681
C         40.54340        19.24415        -1.37757
C         41.56375        18.56368        -1.94333
O          7.58139        16.72280         1.61049
O          8.34575        14.80353        -1.32579
O         35.13861        16.73422        -1.87729
O         39.75946        10.10033        -2.63466
O         10.18736        14.39575         1.97244
O         20.99388         7.14638        -0.88354
O         32.30291        13.68406         1.54738
O         16.58229         3.79902         2.55349
O         34.81807         7.92917        -1.80454
O         37.80648        14.45528         0.69725
O         32.39699         5.72605         2.33147
H         31.72408         5.18387         2.79645
O         22.13772         4.21449        -1.28702
H         21.60690         4.99522        -1.56262
O          1.93329        14.20165         0.79315
H          1.90273        15.13450         1.09667
O          9.38753         5.41229         1.95072
H         10.11005         4.87393         2.34250
O         13.63439        10.40069        -0.80204
H         12.82124        10.72051        -1.25021
O         15.70957        16.60312        -0.87119
H         16.50114        16.26251        -1.33878
O         17.30645         8.95332         2.60616
H         17.45988         8.13292         3.12142
O         39.63834        18.55498         0.73811
H         40.52324        18.15901         0.88980
O         12.16628        14.37944        -1.02214
H         13.04609        14.13245        -1.37868
O         19.63886        18.56578         2.96521
H         18.79977        18.13797         3.24260
O         30.08374        17.06076         1.96826
H         29.40721        17.46942         2.54744
O          6.77557         3.83668        -3.01552
H          6.09181         3.38682        -3.55679
O         21.81870         8.37341         2.46692
H         22.56038         8.79914         2.94786
O         30.15954        16.43783        -1.63209
H         30.86489        16.08247        -2.21250
O         28.35603         6.36758         2.76871
H         29.12103         6.92117         3.03724
O         14.65973        10.16872         2.70535
H         15.52137         9.83643         3.05269
O         19.72878         9.94755        -1.25072
H         18.83856         9.65950        -1.56669
O          8.96456        12.16767        -1.97598
H          8.93577        13.13036        -2.19659
O         14.97726        17.09384         2.68784
H         14.10614        17.27078         3.11405
O         37.07014        17.14098         1.23918
H         37.91530        17.60271         1.45323
O          1.93504         9.93916         0.62612
H          1.86044        10.88510         0.88027
O         12.13313        17.31060         2.68209
H         11.27177        17.72805         2.90042
O         16.96604         9.54605        -1.01005
H         16.05368         9.78872        -1.28506
O         40.25519        14.76499        -3.35320
H         40.24141        13.80783        -3.56952
O         33.94714        12.70841        -2.15062
H         34.02181        11.77379        -2.44274
O         38.32810         8.06703         1.26092
H         39.12522         7.58252         1.56405
O         13.17847         3.20627         2.53388
H         14.01924         2.87590         2.91934
O         12.04130        10.10967         2.50024
H         11.20907         9.67615         2.78178
O         24.72642        17.26713         2.78496
H         23.92380        17.74298         3.08940
O         40.98830         3.48918         1.33189
H         41.09107         4.43593         1.56625
H          0.64841         1.46196        -2.40061
H          0.50510         3.89791        -2.06527
H          2.83223         0.27690        -2.25896
H          0.42171         5.79756        -1.77122
H          0.34275         8.20738        -1.36672
H          0.47504        10.12881        -1.98898
H          0.48626        12.57163        -1.97096
H          0.28783        14.48109        -1.58664
H          0.43001        16.89373        -1.90047
H          1.62171        19.04916        -1.51236
H          5.20927         0.30567        -1.73232
H          3.70772        20.30063        -1.02897
H          7.62514         0.31911        -1.26490
H          6.13243        20.33187        -0.55317
H         10.03936         0.34759        -0.82613
H          8.59176        20.33884        -0.04274
H         12.44033         0.35872        -0.33538
H         11.05180        20.31921         0.14106
H         14.81108         0.32917         0.19771
H         13.50531        20.29170         0.26628
H         17.21466         0.27738         0.72999
H         15.96109        20.31511         0.48024
H         19.68165         0.26561         0.87943
H         18.39851        20.35219         1.07776
H         22.15126         0.26795         0.74536
H         20.92872        20.33432         0.98557
H         24.64279         0.26219         0.78491
H         23.35381        20.30058         0.47990
H         27.11401         0.27253         0.74388
H         25.81544        20.30166         0.31644
H         29.55175         0.26733         0.61723
H         28.22587        20.31480         0.09324
H         32.01298         0.25176         0.41358
H         30.70067        20.32800        -0.21347
H         34.47597         0.24363         0.17824
H         33.15818        20.35297        -0.24690
H         36.93000         0.23672        -0.10899
H         35.65382        20.35885        -0.67581
H         39.35492         0.23019        -0.59130
H         38.06657        20.28339        -1.20928
H         41.50874         1.41996        -0.62860
H         42.72218         3.57931        -1.02668
H         42.65290         5.98153        -1.43489
H         42.74947         7.90913        -1.16628
H         42.80323        10.30915        -1.37881
H         42.74276        12.31618        -1.29338
H         42.69580        14.73496        -1.65659
H         42.42155        16.63446        -2.51375
H         40.56087        20.34319        -1.33064
H         42.41691        19.10536        -2.37744
