         261
 CSIRO Nanostructure Databank - Neutral Graphene Oxide Data Set
C        -11.07123         0.66066        -1.37688
C        -10.15785         1.54358        -0.62244
C         -8.76678         0.77454         1.03381
C         -7.54299         1.60143         1.25714
C         -6.32001         0.84419         1.74408
C         -4.95269         1.49943         1.60206
C         -3.70627         0.73680         1.95522
C         -2.35219         1.09756         1.34170
C         -1.19912         0.71460         2.28552
C          0.05862         1.57866         2.50468
C          1.40139         0.73130         2.56373
C          2.71028         1.47046         2.38700
C          3.85362         0.75111         1.72765
C          5.00304         1.50082         1.14908
C          6.20845         0.68829         0.68740
C          7.38247         1.51220         0.23025
C          8.64194         0.83003        -0.16738
C          9.71363         1.57098        -0.97770
C         10.42214         0.69726        -1.98932
C         -9.38850         2.47309        -1.22758
C         -8.43339         3.37908        -0.53166
C         -7.46079         2.96668         0.56790
C         -6.10762         3.68103         0.58097
C         -4.87020         2.86322         0.90682
C         -3.53989         3.20763         0.26144
C         -2.27862         2.46317         0.63323
C         -0.90475         3.13260         0.53985
C          0.21373         2.67901         1.45212
C          1.38970         3.59331         1.75666
C          2.69119         2.97831         2.18263
C          3.98678         3.75324         1.94667
C          5.27261         2.94102         1.60313
C          6.22656         3.67865         0.62848
C          6.97210         2.82932        -0.38965
C          8.09270         3.56118        -1.09564
C          9.22136         2.89095        -1.53152
C         -8.13729         4.57188        -1.36013
C         -7.06765         5.37442        -1.16636
C         -5.96232         5.01348        -0.19281
C         -4.66511         5.22676        -0.99736
C         -3.39697         4.52050        -0.49864
C         -2.05438         5.16815        -0.64988
C         -0.72534         4.50585        -0.21171
C          0.15378         5.51400         0.52229
C          1.29530         5.04129         1.36661
C          2.50660         5.92686         1.62506
C          3.88908         5.24857         1.71055
C          5.04201         5.95540         1.00994
C          6.11398         5.13676         0.34097
C          6.85018         5.71301        -0.82778
C          7.88418         4.92844        -1.41319
C         -6.88901         6.59353        -1.93491
C         -5.71380         7.29455        -1.90663
C         -4.62574         6.77927        -0.99583
C         -3.24410         7.48158        -1.05806
C         -2.00741         6.57854        -1.19910
C         -0.71701         7.33513        -1.15794
C          0.17273         6.94271        -0.00722
C          1.18560         7.92378         0.51662
C          2.40158         7.39044         1.25409
C          3.67311         8.16113         0.99107
C          4.89487         7.37601         0.58442
C          5.46936         7.82557        -0.75195
C          6.64367         7.01902        -1.22006
C         -5.52442         8.53558        -2.61598
C         -4.33701         9.20137        -2.61763
C         -3.14300         8.68817        -1.97691
C         -1.95283         9.33399        -2.11141
C         -0.60510         8.75981        -1.73404
C          0.31427         9.69213        -0.98346
C          1.25790         9.28425        -0.11485
C          2.25348        10.25891         0.49437
C          3.62409         9.59735         0.59194
C          4.76851        10.13819        -0.19801
C          5.66261         9.32609        -0.78181
C        -10.99448        -0.68679        -1.39470
C        -10.04535        -1.47220        -0.58287
C         -8.79053        -0.57360         1.08013
C         -7.65305        -1.42266         1.49848
C         -6.39500        -0.68821         1.91446
C         -5.10477        -1.46974         2.16059
C         -3.80390        -0.73762         2.33916
C         -2.51787        -1.53677         2.31615
C         -1.20711        -0.77289         2.44577
C          0.08298        -1.53945         2.29374
C          1.38444        -0.77670         2.31619
C          2.64908        -1.41719         1.76121
C          3.97372        -0.72565         2.00646
C          5.25151        -1.47168         1.75596
C          6.40694        -0.74984         1.07551
C          7.73145        -1.44622         0.73883
C          8.66364        -0.68470        -0.15833
C          8.90481        -1.21211        -1.58516
C         10.13534        -0.59207        -2.20028
C         -9.15668        -2.35650        -1.09882
C         -8.29934        -3.28132        -0.28343
C         -7.59909        -2.85768         1.01364
C         -6.42208        -3.65855         1.53132
C         -5.16067        -2.99782         2.02123
C         -3.85766        -3.78064         1.84226
C         -2.56632        -2.98257         1.94436
C         -1.36629        -3.45502         1.19871
C         -0.01341        -2.79741         1.44662
C          1.25270        -3.53590         1.11596
C          2.60269        -2.85941         1.36089
C          3.85039        -3.68531         1.36244
C          5.18049        -2.95512         1.46487
C          6.35475        -3.63173         0.85644
C          7.63091        -2.93150         0.46518
C          7.92446        -3.49833        -0.92717
C          8.71461        -2.68003        -1.84139
C         -7.78933        -4.38654        -1.17803
C         -7.68456        -5.68863        -0.97184
C         -6.45431        -5.15998         1.27172
C         -5.16109        -5.88936         0.93650
C         -3.84854        -5.17169         1.23386
C         -2.68717        -5.51364         0.30143
C         -1.43085        -4.67842         0.35873
C         -0.15084        -5.46679         0.16905
C          1.15949        -5.00946         0.76389
C          2.45799        -5.77172         0.52922
C          3.78752        -5.02371         0.68811
C          4.89642        -5.49052        -0.26815
C          6.26020        -4.80058        -0.12522
C          7.50793        -5.66399        -0.03966
C          8.63996        -4.67335        -0.14851
C         -7.50192        -6.99699        -0.96300
C         -6.12055        -7.63159        -0.93479
C         -5.11557        -7.16267         0.12639
C         -3.74963        -7.75333        -0.19360
C         -2.66547        -6.77923        -0.51553
C         -1.44732        -7.28306        -1.31793
C         -0.20307        -6.41175        -1.03288
C          1.25967        -8.07601        -0.21528
C          2.46766        -7.18635        -0.02217
C          3.71249        -7.63829        -0.73831
C          4.98255        -7.02472        -0.21327
C          6.26275        -7.77265        -0.35337
C          7.52847        -6.98675        -0.30751
C         -6.13628        -9.15386        -0.92418
C         -4.98479        -9.84692        -0.88758
C         -3.68186        -9.14629        -0.71504
C         -2.42542        -9.60102        -1.34009
C         -1.27668        -8.82796        -1.35313
C         -0.04968        -9.47568        -1.73824
C          1.24490        -9.04698        -1.34906
C          2.45324        -9.63595        -1.72094
C          3.73917        -8.95558        -1.44745
C          5.05887        -9.63871        -1.51464
C          6.19615        -9.10450        -1.02082
O         -1.75414        -7.00343        -2.70324
O         -4.26996         1.63585         2.90737
O         -0.11544         7.80880         1.14778
O         -3.38333        -8.81017         0.72358
O          0.03722         5.51459         1.95774
O         -4.61201        -1.04807         3.48143
O          7.08551         4.60625         1.32654
O         -3.09825         7.95923         0.27687
O          5.85661        -0.35481        -0.26563
O         -2.58398         4.29638        -1.70553
O         -5.92618         6.04892         0.84255
O         -6.11807        -3.53524         2.96382
O          5.53279        -7.67464         0.94529
O         -7.14928         1.59961         2.66537
O         -5.32703        -7.23548         1.53486
O         -1.47006         0.10780         3.58148
O          6.63456        -4.07284        -1.39030
O          3.95321        -4.90594         2.12915
O          3.85502         1.19797         0.31883
O          0.58729        -2.68624         0.13142
O          2.71030        -1.78320         0.35264
O          1.82377         3.58297         3.15170
O         -3.64436        -4.98802         2.64699
O          8.49974         1.46677         1.14726
O          5.99997         2.39506        -1.42610
O          8.71143        -3.79364         1.03197
O         -5.08573         7.12422         0.37349
O          0.12783         2.18084         0.09144
O          4.84550        -1.08950         3.10310
O         -1.64288        -3.39408        -0.26239
O          0.39159        -8.17681         0.64148
O          2.27263         1.04325         3.69129
O         -8.63872         3.76198         0.87179
O         -2.99467         2.19762        -0.62965
O          2.61979        -6.93748         1.39405
O          0.24709        -5.84958         1.52176
O          4.23713         4.71041         3.01273
O          5.72479         7.05593         1.71580
O         -7.45349        -5.78437         1.55095
O         -1.04849         6.48732        -2.31387
O        -10.03109        -1.19109         0.78719
O         -8.84063        -3.60993         1.01305
O          3.97677         9.21475         1.95787
O        -10.02098         1.37424         0.75734
O         -3.20369        -5.54869        -1.07162
O          9.09879        -1.15299         1.15201
O          3.68879        -7.62882        -2.18563
O         -5.40841         3.84164         1.84081
O          0.92233        -1.57358         3.46675
O         -7.35968        -1.14874         2.90394
O          2.24814         6.94963         2.62420
O         -2.39670        -2.59344         3.32717
O          6.12131        -3.75811         2.26112
O         -5.47325        -7.23453        -2.17820
H         -6.03815        -7.51740        -2.92689
O         -0.14391         2.23641         3.74337
H         -0.32261         1.55886         4.43178
O         -4.92758         4.72743        -2.31196
H         -4.05762         4.52598        -2.73288
O          0.60540        -6.24321        -1.93527
H         -0.90656        -6.77576        -3.15057
O          0.08646         8.62374        -3.01852
H         -0.31104         7.84110        -3.46603
O          5.29267         3.59641        -1.87241
H          4.84930         3.25849        -2.68885
O         -2.22318         0.10994         0.26509
H         -1.63167         0.47101        -0.43219
O         10.75572         1.97745        -0.04834
H         10.31063         2.19840         0.80292
O          5.98809         2.75263         2.82950
H          6.16120         3.64303         3.21226
O          4.33974        -5.14187        -1.54914
H          5.06626        -5.02485        -2.19872
O          4.36898         7.51434        -1.68588
H          4.57549         7.93190        -2.54927
O         -0.00045         4.22256        -1.41436
H         -0.63068         3.81810        -2.05147
O          7.77989        -0.59669        -2.32390
H          6.93856        -0.76539        -1.83064
O          2.36068        11.45623        -0.26356
H          1.58262        12.01766        -0.07505
H         10.73104        -1.18981        -2.90604
H         11.29488         1.15507        -2.47902
H          9.97215         3.47142        -2.09243
H          8.57944         5.41827        -2.11251
H          7.25354         7.42983        -2.04084
H          6.51551         9.73764        -1.34310
H          4.87136        11.23122        -0.26301
H          1.90456        10.50254         1.53627
H          0.34896        10.72796        -1.35650
H         -1.91671        10.24763        -2.72778
H         -4.24493        10.14523        -3.17615
H         -6.38390         8.94426        -3.16741
H         -7.72469         6.93578        -2.56310
H         -8.89617         4.85997        -2.10317
H         -9.48183         2.62387        -2.31228
H        -11.75540         1.15404        -2.08673
H        -11.62828        -1.24152        -2.10570
H         -9.17887        -2.54120        -2.18258
H         -7.66381        -4.06085        -2.23064
H         -8.37122        -7.66410        -1.09876
H         -7.10049        -9.67889        -1.00756
H         -4.98801       -10.94692        -0.93221
H         -2.33866       -10.67465        -1.57644
H         -0.14056       -10.42730        -2.28889
H          2.45753       -10.51463        -2.38583
H          5.08919       -10.63542        -1.98090
H          7.13852        -9.66561        -1.11835
H          8.48474        -7.52108        -0.42252
H          9.63126        -5.07211        -0.45517
H          8.85014        -3.02242        -2.87835
