         404
 CSIRO Nanostructure Databank - Neutral Graphene Oxide Data Set
C          1.52379         3.45513         1.10162
C          0.34684         4.16838         1.41813
C          1.19713         6.25196         0.38002
C          0.18755         5.50955         1.14599
C          1.23133         7.75059         0.41865
C          0.03431         8.47008         0.63988
C          1.20016        10.60476         0.41893
C          0.01964         9.85286         0.63848
C          1.19887        12.04810         0.43072
C          0.00378        12.77853         0.66738
C          1.18757        14.90626         0.49768
C          0.00020        14.15389         0.70338
C          1.17980        16.34016         0.57131
C         -0.02294        17.06657         0.82700
C          1.15993        19.20020         0.78365
C         -0.03777        18.43526         0.92040
C          1.15171        20.61781         0.83853
C         -0.03274        21.39581         1.16697
C          1.08025        23.41928         0.28540
C         -0.06134        22.73975         1.00477
C          1.11953        24.92400         0.35745
C         -0.08702        25.62509         0.07204
C          1.18768        27.69139        -0.27629
C         -0.07622        26.95479        -0.23818
C          1.18739        29.22684        -0.40761
C         -0.08256        29.97245        -0.40891
C          1.15409        32.07023        -0.35931
C         -0.08791        31.32484        -0.35558
C          1.17897        33.43553        -0.70953
C          0.02315        34.28919        -0.76506
C          1.27860        36.04661        -2.05017
C          0.06630        35.54094        -1.30083
C          1.35201        37.54409        -2.15923
C          3.88264         3.48583         0.39689
C          2.62698         4.08751         0.48378
C          3.71871         6.27409        -0.11699
C          2.44738         5.48784         0.01295
C          3.69409         7.76438        -0.03675
C          2.41196         8.47075         0.18318
C          3.63864        10.62818        -0.01780
C          2.41934         9.90041         0.18627
C          3.63066        12.05064        -0.01657
C          2.40627        12.76817         0.20805
C          3.61059        14.93046        -0.02439
C          2.40518        14.20292         0.22982
C          3.61629        16.37433         0.08845
C          2.39293        17.06839         0.40858
C          3.61370        19.21289         0.46068
C          2.38766        18.49020         0.53720
C          3.62182        20.62795         0.59986
C          2.37888        21.33777         0.68437
C          3.58284        23.48361         0.76498
C          2.38104        22.74708         0.62505
C          3.54422        24.89928         0.79393
C          2.33518        25.62239         0.50259
C          3.54031        27.81901         0.56306
C          2.38322        27.05381         0.30254
C          3.58173        29.23825         0.39248
C          2.40035        29.95911         0.01137
C          3.58948        32.16818         0.26867
C          2.36788        31.35520        -0.07471
C          3.73024        33.35319        -0.65714
C          2.47255        34.02691        -1.11228
C          3.75254        36.11271        -1.50378
C          2.54398        35.44298        -1.49855
C          3.79645        37.50523        -1.93052
C          2.53333        38.19238        -2.16377
C          6.33204         3.49945        -0.32304
C          4.98632         4.07633        -0.37001
C          6.09640         6.33647        -1.12610
C          4.86212         5.55847        -0.75940
C          6.08638         7.87651        -1.10466
C          4.86011         8.53628        -0.48496
C          6.12972        10.63579        -0.36583
C          4.86083         9.90619        -0.31287
C          6.10287        12.09233        -0.37163
C          4.82906        12.79516        -0.27629
C          6.00868        14.95500        -0.75293
C          4.80173        14.20272        -0.32110
C          6.01689        16.44765        -0.58515
C          4.80934        17.11751        -0.05494
C          6.05175        19.27076         0.16669
C          4.84053        18.52431         0.19084
C          6.07433        20.65144         0.45278
C          4.84121        21.35402         0.61526
C          6.07461        23.45776         0.89178
C          4.84541        22.77162         0.80496
C          6.08223        24.88780         1.23321
C          4.73889        25.63464         1.20627
C          6.07007        27.85024         1.08492
C          4.73170        27.13360         1.12685
C          6.04201        29.26550         0.68016
C          4.84364        29.95681         0.53074
C          6.05893        32.14220         0.36165
C          4.88235        31.39707         0.32952
C          6.09597        33.54159         0.01483
C          4.96960        34.14890        -0.54533
C          6.21195        36.17432        -1.15805
C          4.98039        35.48393        -1.05192
C          6.24709        37.48195        -1.77286
C          5.00386        38.14151        -2.08101
C          8.76865         3.60683        -0.58646
C          7.47984         4.20120        -0.65695
C          8.68467         6.39377        -1.06856
C          7.41536         5.61831        -1.09487
C          8.64202         7.79740        -0.88862
C          7.33902         8.41291        -0.38679
C          8.59099        10.61206        -0.21264
C          7.31457         9.92605        -0.40291
C          8.55419        12.13212        -0.22895
C          7.28339        12.80813        -0.44219
C          8.55338        14.99031        -0.36510
C          7.34847        14.23624        -0.93264
C          8.56760        16.39097        -0.22975
C          7.33800        17.16615        -0.52071
C          8.57359        19.25276         0.34371
C          7.33505        18.61557        -0.14582
C          8.56080        20.64068         0.58609
C          7.32000        21.36395         0.56800
C          8.56434        23.47340         0.93120
C          7.31510        22.76134         0.78578
C          8.55948        24.92394         0.99806
C          7.34670        25.64665         1.08438
C          8.56333        27.74987         0.87931
C          7.34226        27.06898         1.01902
C          8.59514        29.21392         0.64754
C          7.32487        29.98767         0.54901
C          8.59240        32.21303         1.05597
C          7.30668        31.46753         0.81079
C          8.62338        33.72096         0.68731
C          7.34430        34.33770         0.13671
C          8.65189        36.18906        -0.98484
C          7.42132        35.57838        -0.68976
C          8.69471        37.44963        -1.69256
C          7.46692        38.09261        -2.02714
C         11.17388         3.51553        -0.83864
C          9.95959         4.25429        -0.99017
C         11.06845         6.50469        -1.49229
C          9.89919         5.69810        -1.27440
C         11.06467         7.90823        -1.26114
C          9.83497         8.55549        -0.92785
C         10.99811        10.72985        -0.79508
C          9.84847         9.96702        -0.62822
C         11.01420        12.15843        -0.56929
C          9.80952        12.85558        -0.44301
C         10.99470        14.91452         0.07227
C          9.78054        14.26901        -0.27679
C         10.90457        16.28556         0.57368
C          9.72148        17.07907         0.24088
C         10.98883        19.17556         0.82568
C          9.76006        18.49124         0.47065
C         10.97875        20.58473         1.01274
C          9.78700        21.32443         0.88008
C         11.03932        23.46368         1.11597
C          9.77291        22.76339         0.98369
C         11.04709        24.91603         1.06752
C          9.80728        25.62527         0.99666
C         11.04401        27.76854         1.02203
C          9.80082        27.05088         0.94879
C         11.05647        29.22417         1.04770
C          9.84271        29.94855         0.94520
C         11.07929        31.93797         1.37456
C          9.83110        31.34921         1.11163
C         11.11535        34.02047         0.74571
C          9.88499        34.41281         0.24461
C         11.13286        36.18001        -0.92610
C          9.89161        35.57671        -0.59069
C         11.15755        37.42296        -1.66179
C          9.92373        38.03672        -2.01157
C         13.72828         3.62272        -1.14218
C         12.39618         3.87761        -1.45444
C         13.52495         6.59574        -1.84208
C         12.28197         5.95660        -1.95659
C         13.50974         8.01176        -1.67281
C         12.28284         8.64218        -1.42006
C         13.54156        10.88289        -1.19599
C         12.21705        10.10939        -1.33147
C         13.49433        12.19978        -0.55886
C         12.25829        12.86561        -0.41610
C         13.46043        14.89911         0.33868
C         12.22164        14.22534         0.03639
C         13.48080        16.28227         0.64188
C         12.23191        17.01544         0.88268
C         13.48530        19.15151         0.90458
C         12.22970        18.47287         0.87511
C         13.51493        20.57032         1.07743
C         12.22962        21.26041         1.52587
C         13.47748        23.47375         1.51023
C         12.21378        22.75590         1.30137
C         13.53128        24.93563         1.30118
C         12.26552        25.63651         1.14497
C         13.52093        27.78285         1.50669
C         12.24576        27.05992         1.13322
C         13.55925        29.23542         1.10142
C         12.30143        29.92440         1.03606
C         13.51060        32.06410         0.49576
C         12.29673        31.33993         1.05740
C         13.56800        33.59139         0.38882
C         12.38312        34.36603         0.19642
C         13.61791        36.12497        -0.97707
C         12.37925        35.56541        -0.58142
C         13.62580        37.38444        -1.68078
C         12.38784        38.00310        -2.00589
C         16.08742         3.76220        -1.75812
C         14.82664         4.40712        -1.68289
C         15.94652         6.54959        -2.21463
C         14.75217         5.83181        -1.94070
C         16.05420         8.05755        -2.17626
C         14.76959         8.79426        -1.85217
C         15.96195        10.72678        -0.72825
C         14.80686        10.14330        -1.23079
C         15.91175        12.04004        -0.14355
C         14.70769        12.78497        -0.11076
C         15.88864        14.83418         0.62788
C         14.68555        14.17264         0.30192
C         15.92556        16.23975         0.77382
C         14.70585        16.98268         0.73128
C         15.95958        19.10436         0.89307
C         14.71121        18.41716         0.84968
C         15.98097        20.52926         0.94697
C         14.73886        21.23791         1.07739
C         15.98191        23.46048         1.00311
C         14.76794        22.69148         1.37991
C         16.01828        24.90846         1.28310
C         14.75173        25.59852         1.29861
C         15.99326        27.80485         1.51189
C         14.76788        27.07659         0.99187
C         16.02921        29.26065         1.25248
C         14.77245        29.93039         1.10050
C         16.07766        32.12409         0.79750
C         14.77281        31.41355         1.01753
C         16.05564        33.45714         0.15219
C         14.80864        34.15373        -0.02592
C         16.06986        36.03705        -1.04555
C         14.83028        35.45193        -0.65671
C         16.07967        37.33003        -1.68768
C         14.85637        37.97540        -2.00019
C         18.54011         3.80323        -2.35372
C         17.21737         4.41719        -2.27026
C         18.89388         6.79365        -2.24034
C         17.04761         5.78126        -2.59892
C         18.66795         8.03208        -1.61866
C         17.37678         8.78000        -1.79677
C         18.47593        10.55961        -0.23408
C         17.28665        10.08437        -0.99011
C         18.37649        11.78983         0.60646
C         17.07645        12.56161         0.61571
C         18.37680        14.76209         1.23425
C         17.07368        14.02426         0.97848
C         18.40341        16.22476         0.98730
C         17.18285        16.93714         0.90444
C         18.43486        19.05637         0.92585
C         17.19075        18.36578         0.89103
C         18.44034        20.48916         1.01482
C         17.24677        21.20803         0.99384
C         18.51099        23.44726         1.12117
C         17.28124        22.68943         0.87900
C         18.48506        24.82719         1.26735
C         17.24943        25.56759         1.33659
C         18.52874        27.79883         1.44259
C         17.28478        27.03230         1.61954
C         18.51536        29.17043         1.16067
C         17.26663        29.92617         1.09540
C         18.52071        31.94842         0.40236
C         17.31394        31.31752         0.76060
C         18.52490        33.31757        -0.06319
C         17.27325        34.03242        -0.23602
C         18.52793        35.96896        -1.16243
C         17.29184        35.35124        -0.81695
C         18.53156        37.28124        -1.74296
C         17.30949        37.93030        -2.01280
C         19.72910         4.45318        -2.18033
C         20.88723         6.36402        -0.99459
C         19.87124         5.86414        -1.83786
C         20.85286         7.69188        -0.58407
C         19.74343         8.53641        -0.85001
C         20.90414        10.52975         0.14850
C         19.67790         9.88562        -0.29970
C         20.91650        11.78146         0.64997
C         19.66400        12.48532         0.99537
C         20.89969        14.78649         1.04642
C         19.67322        13.99239         1.25317
C         20.87212        16.12830         0.88614
C         19.64192        16.90774         0.88715
C         20.90219        19.06801         0.74121
C         19.66016        18.32567         0.84307
C         20.95425        20.40982         0.90077
C         19.73915        21.18291         1.21589
C         21.01716        23.46332         1.05320
C         19.77584        22.69201         1.30306
C         21.01184        24.80177         1.15504
C         19.77448        25.53591         1.52126
C         21.03349        27.80945         1.34881
C         19.79442        27.06449         1.59024
C         20.99439        29.12394         1.01954
C         19.75763        29.85713         0.89697
C         20.96934        31.90528         0.17709
C         19.75800        31.21632         0.49747
C         20.95967        33.20758        -0.24512
C         19.74242        33.94018        -0.39949
C         20.96416        35.95674        -1.24508
C         19.76652        35.29616        -0.92967
C         20.96206        37.24942        -1.79637
C         19.77192        37.90444        -2.05386
O          3.26757        33.13118        -2.01740
O         18.06223         6.43403        -3.30487
O         11.10455        33.22704         1.88750
O          7.47542        18.17860        -1.56883
O          1.43435         5.72041        -0.99518
O         15.40462        32.08908         2.13062
O          5.74463        15.83254        -1.90284
O         17.55025        10.05723        -2.45573
O          4.09316         6.89577         1.15223
O         14.24858        23.01285         2.70823
O          7.69321        31.88658         2.16507
O         19.83881        26.21015         2.81033
O         17.50427        14.35706         2.33331
O          8.04901        29.61162        -0.68761
O         12.79057        10.82055        -2.46725
O          5.28895        27.71386         2.34020
O         16.51383        23.12833        -0.31647
O         17.42950        11.64829         1.71722
O          1.40669        28.36993        -1.57430
O         11.39518        16.44007         1.94470
O         12.23080         4.71842        -2.58296
O          4.50465         4.55905        -1.70710
O         16.48281        27.39891         2.81050
O          7.78524        34.53920         1.54234
O         19.81427        21.87793         2.53109
O         19.72563        13.02730         2.34815
O          5.32242        25.15830         2.45991
O          6.67904         5.83094        -2.36564
O         15.31623         8.73325        -3.22660
O          8.64194        11.36904         1.04517
O         14.81998        27.21228        -0.45267
H         14.01401        26.80095        -0.82992
O          1.13978        35.54128        -3.42656
H          1.35480        34.58362        -3.41012
O          7.60306        14.12511        -2.36145
H          7.13042        14.88243        -2.78516
O          3.37123        32.73471         1.60221
H          3.56113        32.03894         2.26637
O         13.58940        27.74481         2.95792
H         12.84495        28.27022         3.31755
O         13.48850        31.66864        -0.92576
H         12.67029        32.02365        -1.33321
O          7.21916         8.00279         1.00493
H          7.81818         8.56129         1.54433
O          0.85357        23.14411        -1.15361
H          0.86420        22.16871        -1.26430
O         12.21355        21.08824         2.98571
H         12.95449        21.63965         3.33723
O          6.12376         8.33307        -2.47116
H          6.45818         7.58221        -3.01857
H          1.61161         2.40188         1.40361
H         -0.44929         3.64051         1.96306
H         -0.69292         6.03839         1.53678
H         -0.90704         7.92698         0.79859
H         -0.93755        10.36225         0.80871
H         -0.94287        12.24919         0.83485
H         -0.95026        14.66529         0.90097
H         -0.97289        16.52911         0.94220
H         -0.99264        18.94727         1.10004
H         -0.90269        20.88340         1.60275
H         -0.95753        23.31359         1.28235
H         -1.02873        25.06171         0.01331
H         -0.99593        27.44509        -0.58319
H         -1.02896        29.42566        -0.51627
H         -1.04080        31.86990        -0.40893
H         -0.91804        33.93037        -0.32127
H         -0.84379        36.15962        -1.30682
H          0.41418        38.09368        -2.33056
H          4.04375         2.50381         0.86703
H          2.56824        39.28143        -2.32093
H          6.43429         2.47993         0.07985
H          5.03732        39.18103        -2.44022
H          8.83155         2.55390        -0.27204
H          7.49500        39.08300        -2.50499
H         11.13955         2.61191        -0.21047
H          9.93851        38.99328        -2.55488
H         13.98341         2.79815        -0.45943
H         12.39834        38.95974        -2.54926
H         16.16226         2.70831        -1.45286
H         14.87871        38.95345        -2.50306
H         18.56662         2.70567        -2.44471
H         17.31790        38.92130        -2.49031
H         20.64445         3.84149        -2.13771
H         21.70403         5.70686        -0.66491
H         21.67369         8.06365         0.04278
H         21.85901        10.01533        -0.02202
H         21.86818        12.24426         0.94426
H         21.86773        14.26786         1.07898
H         21.82915        16.65368         0.77014
H         21.83645        18.52626         0.54240
H         21.92313        20.92666         0.86464
H         21.95368        22.92999         0.83649
H         21.94718        25.36334         1.02199
H         21.99960        27.30642         1.48769
H         21.94701        29.64630         0.86438
H         21.93572        31.39164         0.25499
H         21.91807        33.68401        -0.48778
H         21.93368        35.47450        -1.06520
H         21.91976        37.73529        -2.02964
H         19.77111        38.91156        -2.49441
