         234
 CSIRO Nanostructure Databank - Neutral Graphene Oxide Data Set
C          1.51202         3.42970         2.38096
C          1.25249         4.29447         1.30678
C          2.65187         2.64894         2.43065
C          2.28859         4.55996         0.31163
C          0.96780         6.56902        -0.68914
C          1.04680         7.90098        -0.82577
C          2.17307         5.72447        -0.67078
C          2.36224         8.63492        -0.78575
C          1.09266        10.79183        -1.27903
C          1.08338        12.14622        -1.01942
C          2.32099        10.05245        -1.33958
C          2.29731        12.86691        -0.96799
C          1.21590        14.97450        -0.23317
C          1.28799        16.21004         0.36940
C          2.38982        14.20689        -0.48718
C          2.52765        16.72138         0.83534
C          2.59611        17.99966         1.45659
C          3.61749         2.65590         1.27166
C          3.68879         4.09463         0.69671
C          4.99595         2.18078         1.64755
C          4.71613         4.21911        -0.42345
C          3.44605         6.33702        -1.22193
C          3.54889         7.82665        -1.30106
C          4.70371         5.51846        -1.19394
C          4.74195         8.45710        -1.48830
C          3.51505        10.71395        -1.56009
C          3.49293        12.19125        -1.50035
C          4.82136         9.97459        -1.28253
C          4.83243        12.92923        -1.38565
C          3.67025        14.75010        -0.11489
C          3.72734        15.96731         0.64812
C          4.87403        14.08765        -0.48125
C          4.96156        16.42789         1.20170
C          3.80306        18.50968         1.86137
C          5.01904        17.75342         1.78750
C          6.11053         2.55724         0.95683
C          6.00848         3.49210        -0.21029
C          7.39838         2.02647         1.33585
C          7.29360         4.02348        -0.81087
C          6.01897         6.20002        -1.50014
C          6.06148         7.71110        -1.26467
C          7.31560         5.42213        -1.39728
C          7.23361         8.37253        -1.96043
C          6.06641        10.65594        -1.88211
C          6.10272        12.18131        -1.72529
C          7.32262         9.84090        -2.02090
C          7.36377        12.90172        -1.39129
C          6.11280        14.53261         0.03335
C          6.12920        15.61952         0.96252
C          7.36555        13.93653        -0.38491
C          7.35903        15.86849         1.61225
C          6.20204        18.45688         2.13629
C          7.43916        17.82843         2.39847
C          8.58724         2.44255         0.78628
C          8.58786         3.46696        -0.30002
C          9.83543         1.92055         1.27145
C          9.86522         4.23991        -0.50821
C          8.58714         6.19723        -1.37255
C          8.57028         7.55290        -1.93238
C          9.79976         5.67887        -0.90174
C          9.79905         8.33633        -1.93220
C          8.49493        10.34815        -2.55727
C          8.56292        12.56053        -1.99052
C          9.76673         9.65656        -2.43338
C          9.82800        13.04453        -1.52166
C          8.59676        14.44925         0.08673
C          8.62006        15.47229         1.10749
C          9.84723        13.96586        -0.42892
C          9.82752        16.09608         1.52578
C          8.74522        18.28466         2.25327
C          9.88066        17.40271         2.12710
C         11.05759         2.49327         0.97239
C         11.11190         3.70309         0.11533
C         12.29244         2.01986         1.51054
C         12.29368         4.56797         0.23233
C         10.99611         6.45285        -0.89559
C         11.00678         7.77362        -1.44251
C         12.20908         6.02477        -0.09874
C         12.21760         8.53326        -1.53576
C         11.00109        10.35541        -2.52695
C         11.04954        12.51603        -1.98128
C         12.21991         9.84890        -2.04147
C         12.28309        12.80447        -1.36588
C         11.08115        14.40624         0.08753
C         11.11671        15.32944         1.28327
C         12.29719        13.87527        -0.41114
C         12.38039        16.14914         1.31351
C         11.14316        17.97783         2.40992
C         12.37631        17.38677         2.03539
C         13.48797         2.70434         1.31505
C         13.49228         4.01147         0.66041
C         14.72070         2.21839         1.85492
C         14.72714         4.71174         0.45730
C         13.52145         6.54690        -0.62587
C         13.48547         7.79011        -1.41162
C         14.71550         5.93906        -0.28444
C         14.75674         8.44924        -1.84575
C         13.48472        10.67840        -2.17573
C         13.50648        12.10290        -1.68733
C         14.79963         9.92478        -2.13144
C         14.72349        12.72652        -1.39086
C         13.56385        14.45254        -0.06060
C         13.56929        15.64971         0.77131
C         14.73326        13.96794        -0.66475
C         14.80626        16.32646         1.02564
C         13.59284        18.04372         2.30061
C         14.81356        17.51159         1.83770
C         15.91897         2.87979         1.66109
C         15.97044         4.10888         0.86819
C         17.14489         2.37751         2.22660
C         17.19136         4.64744         0.50394
C         16.03608         6.67287        -0.45207
C         16.05627         7.75974        -1.52088
C         17.27272         5.74894        -0.52943
C         17.35089         8.47732        -1.74905
C         16.09219        10.63196        -1.90186
C         16.01287        12.11149        -1.85444
C         17.31204         9.97835        -1.88570
C         17.32332        12.86063        -1.70193
C         15.98164        14.75544        -0.51818
C         16.02090        15.84193         0.48157
C         17.30418        14.21158        -1.03522
C         17.25079        16.44647         0.81450
C         16.04240        18.15170         2.11737
C         17.25619        17.62698         1.65149
C         18.36290         2.91588         1.90640
C         18.47812         3.92300         0.78687
C         19.57705         2.47677         2.54929
C         19.65255         4.86542         0.95675
C         18.52402         6.59465        -0.39837
C         18.65406         7.75379        -1.35346
C         19.67898         6.11366         0.24640
C         19.80686         8.66945        -1.06821
C         18.57771        10.71507        -1.85740
C         18.60451        12.10576        -1.72613
C         19.81729         9.92922        -1.71032
C         19.81205        12.94321        -1.62603
C         18.54649        14.72017        -0.40946
C         18.49641        15.85308         0.40461
C         19.79780        14.16659        -0.88145
C         19.74471        16.42897         0.94261
C         18.47478        18.28965         1.96140
C         19.71427        17.75830         1.58399
C         20.73847         3.17089         2.40056
C         20.78664         4.41116         1.64722
C         21.97118         5.18821         1.63527
C         20.91965         6.85791         0.20143
C         20.99840         8.10200        -0.55572
C         22.03369         6.36927         0.90603
C         22.22988         8.74907        -0.81379
C         21.07471        10.41385        -2.11300
C         21.01199        12.63650        -2.30396
C         22.27531         9.84386        -1.67063
C         22.14587        13.45460        -2.27393
C         21.00696        14.90469        -0.70663
C         21.07172        15.97614         0.31295
C         22.15061        14.57067        -1.44509
C         22.18744        16.92233         0.38081
C         20.92020        18.44770         1.80380
C         22.12096        18.03991         1.18068
O         21.11300        11.45869        -3.05522
O         20.61926        15.48192         1.62666
O         14.02598         7.64642        -2.80516
O          5.00709         3.03396        -1.20027
O         11.01457        11.63775        -3.07614
O          2.68751         8.83757         0.59446
O          7.32298        16.48841         2.85602
O         16.75046         7.61753        -2.79013
O          3.87642         5.57758        -2.39426
O         16.62392        12.81488        -2.98570
O         10.80617         3.47108        -1.33061
O          6.61111         5.61686        -2.67417
O          7.75102         7.74085        -3.13633
O          8.55457        11.65618        -3.05956
O          8.01497         3.01673        -1.57440
O          5.92466        11.53982        -3.01992
O         14.20466        10.35863        -3.40170
O         16.56574        15.20400        -1.80315
O          1.93707         4.35865        -1.09340
O          4.02152        13.05648        -2.57846
O          4.96817        10.13183         0.17806
H          4.11720         9.70107         0.55761
O         18.78260         3.14790        -0.42708
H         18.43531         3.66895        -1.19422
O         11.21466        14.42397         2.45726
H         11.23642        14.99170         3.25752
O         16.18965         7.44127         0.78822
H         16.22879         6.80053         1.53096
O         17.33238         5.09076        -1.82421
H         17.61857         5.76904        -2.48862
O          4.18054         4.98750         1.72605
H          3.52849         5.00708         2.45891
O         19.12577         7.10130        -2.60567
H         19.05159         7.75932        -3.33093
O          3.08010         1.76793         0.26341
H          3.63845         1.87982        -0.54503
O          6.33424         7.82387         0.16615
H          5.93700         8.68417         0.47755
O         12.00678         6.72299         1.22280
H         12.74385         6.44739         1.81003
H          0.75635         3.33270         3.17506
H          0.26880         4.77384         1.21078
H          2.80309         1.94166         3.25932
H         -0.00761         6.06345        -0.63565
H          0.11149         8.47688        -0.80535
H          0.13093        10.26309        -1.30296
H          0.12784        12.64503        -0.80764
H          0.23805        14.59256        -0.55506
H          0.37659        16.80629         0.51874
H          1.67456        18.58739         1.57357
H          5.09493         1.45019         2.46586
H          3.84979        19.51888         2.29585
H          7.41672         1.27697         2.14172
H          6.14606        19.55547         2.17790
H          9.79860         1.06037         1.95723
H          8.93176        19.36468         2.16148
H         12.29172         1.08918         2.09759
H         11.16840        18.97461         2.87360
H         14.71151         1.27278         2.41778
H         13.59026        18.98374         2.87115
H         17.08312         1.55760         2.95933
H         16.04687        19.06723         2.72676
H         19.53626         1.59089         3.20078
H         18.43732        19.24340         2.50838
H         21.65557         2.83800         2.90806
H         22.85368         4.83609         2.18810
H         22.97688         6.93192         0.89887
H         23.17145         8.32662        -0.43981
H         23.23468        10.26823        -1.99288
H         23.03373        13.17355        -2.85341
H         23.06678        15.16807        -1.35461
H         23.09045        16.74507        -0.21900
H         20.89747        19.39678         2.35813
H         23.00329        18.69024         1.26670
