         404
 CSIRO Nanostructure Databank - Neutral Graphene Oxide Data Set
C          1.99355         2.34428        -3.25909
C          1.85750         3.73014        -2.90134
C          3.03944         1.59236        -2.80366
C          2.70975         4.32207        -2.01231
C          1.34077         6.47939        -1.66340
C          1.26695         7.79838        -1.31372
C          2.63621         5.77547        -1.69765
C          2.40120         8.54629        -0.85244
C          1.24728        10.72237        -1.07497
C          1.25268        12.09265        -1.02209
C          2.41211         9.95406        -0.76111
C          2.42972        12.82187        -0.68895
C          1.29707        15.01349        -1.09401
C          1.32847        16.39025        -1.17270
C          2.43674        14.26076        -0.69182
C          2.49603        17.10749        -0.80488
C          2.55560        18.54379        -0.90621
C          4.03156         2.15666        -1.92479
C          3.78510         3.51655        -1.39462
C          5.18255         1.47618        -1.59242
C          4.93346         4.20271        -0.64986
C          3.78395         6.45061        -1.01804
C          3.55451         7.75697        -0.28682
C          4.96085         5.67826        -0.54243
C          4.85012         8.52563        -0.15930
C          3.61771        10.66578        -0.40500
C          3.62080        12.08976        -0.38750
C          4.83415         9.94467        -0.13863
C          4.84241        12.79940        -0.11786
C          3.62174        14.96443        -0.31517
C          3.61496        16.38429        -0.33453
C          4.83757        14.22825        -0.04675
C          4.77928        17.14399         0.13799
C          3.70045        19.24487        -0.63317
C          4.88696        18.58169        -0.17001
C          6.29073         2.11015        -0.92449
C          6.21248         3.48389        -0.54301
C          7.50384         1.43106        -0.74627
C          7.34539         4.15803        -0.05296
C          6.02797         6.34008        -0.00534
C          6.03551         7.80861         0.09070
C          7.21160         5.55281         0.42855
C          7.22501         8.51265         0.43204
C          6.05562        10.64970         0.08821
C          6.05784        12.08235         0.07067
C          7.25696         9.92939         0.37035
C          7.29444        12.78665         0.20928
C          6.06114        14.91072         0.16174
C          6.07626        16.36470         0.37739
C          7.29150        14.21498         0.19779
C          7.33826        17.09705         0.25546
C          6.09965        19.23129        -0.01119
C          7.33103        18.52151         0.18717
C          8.65645         2.09722        -0.26301
C          8.58512         3.49121         0.08154
C          9.88728         1.40966        -0.16946
C          9.78554         4.19704         0.47582
C          8.46071         6.28437         0.84671
C          8.41430         7.78430         0.92047
C          9.76490         5.59689         0.73182
C          9.73019         8.53177         1.01089
C          8.50885        10.65262         0.50940
C          8.51921        12.08133         0.37844
C          9.72741         9.97297         0.70144
C          9.75694        12.80206         0.43039
C          8.53223        14.93700         0.23293
C          8.54549        16.36913         0.19926
C          9.75833        14.23186         0.28802
C          9.79322        17.06905         0.09805
C          8.56820        19.20774         0.20089
C          9.78975        18.51642         0.16868
C         11.07537         2.08275         0.18776
C         11.02264         3.48815         0.50086
C         12.31743         1.40900         0.17282
C         12.23506         4.18178         0.79769
C         10.98670         6.32748         0.86004
C         11.00167         7.78121         0.92830
C         12.20145         5.60444         0.91270
C         12.18699         8.52760         0.95626
C         10.96776        10.67482         0.75761
C         10.98122        12.10728         0.61553
C         12.16608         9.95404         0.98904
C         12.21565        12.83702         0.65570
C         10.99888        14.94942         0.20773
C         11.00130        16.36672         0.01109
C         12.20647        14.22898         0.43386
C         12.25093        17.12186        -0.42381
C         11.02816        19.20072         0.29091
C         12.27184        18.58235         0.09118
C         13.52178         2.08470         0.47922
C         13.46931         3.46644         0.82668
C         14.78003         1.42244         0.43519
C         14.70833         4.12226         1.26368
C         13.48165         6.33205         0.89175
C         13.49663         7.83563         0.88421
C         14.70983         5.64477         1.36341
C         14.75536         8.49763         1.29143
C         13.40783        10.70683         1.26065
C         13.46096        12.13436         0.88895
C         14.72470         9.96927         1.47690
C         14.69910        12.75743         0.75004
C         13.46042        14.99397         0.52968
C         13.50438        16.33579        -0.08509
C         14.76104        14.22814         0.61746
C         14.72153        16.84309        -0.41513
C         13.43122        19.36586         0.31362
C         14.73994        18.99348        -0.10092
C         16.00079         2.09762         0.67466
C         16.00463         3.47246         1.07365
C         17.24295         1.44899         0.50144
C         17.21693         4.18572         1.22204
C         15.99480         6.35731         1.30431
C         15.94215         7.80430         1.37334
C         17.19380         5.64035         1.33036
C         17.19782         8.53689         1.79141
C         15.97667        10.69449         1.18659
C         15.93568        12.02684         0.82079
C         17.24084         9.97742         1.29730
C         17.22590        12.65573         0.33146
C         16.03056        14.86684         0.18619
C         16.01503        16.28844        -0.09615
C         17.20048        14.15662         0.22053
C         17.17044        17.08131        -0.06904
C         15.98576        19.31645         0.41079
C         17.18644        18.52578         0.16989
C         18.47164         2.07985         0.77645
C         18.46828         3.47789         1.17266
C         19.64500         1.31498         0.42659
C         19.68440         4.24643         1.31935
C         18.44740         6.38730         1.31660
C         18.45505         7.76321         1.46839
C         19.69678         5.66689         1.25406
C         19.73150         8.47779         1.58376
C         18.42591        10.65999         1.23269
C         18.41783        12.17057         1.14729
C         19.72495         9.99584         1.48029
C         19.72134        12.78099         0.67349
C         18.47287        14.83017        -0.05183
C         18.46367        16.37387        -0.14677
C         19.73074        14.14702         0.32696
C         19.71461        17.06293         0.18270
C         18.41411        19.15018         0.38598
C         19.68268        18.47154         0.39255
C         20.91864         1.57240         0.93492
C         20.94223         3.62846         1.53000
C         22.19135         1.24826         0.44728
C         22.18234         4.22074         1.22090
C         20.94834         6.35562         1.21436
C         20.98519         7.77827         1.27953
C         22.18355         5.64344         1.10247
C         22.18559         8.49149         1.10937
C         20.97111        10.65953         1.07225
C         20.93839        12.05992         0.76452
C         22.17879         9.93612         1.00684
C         22.17160        12.74874         0.57052
C         20.94035        14.87991         0.32242
C         20.92933        16.33880         0.32121
C         22.16354        14.16754         0.46363
C         22.10972        17.04121         0.63745
C         20.88383        19.16688         0.61579
C         22.12870        18.47710         0.72713
C         23.37165         2.01518         0.74850
C         23.39289         3.44788         1.03608
C         24.59151         1.35405         0.52854
C         24.61668         4.15969         0.92910
C         23.41513         6.34976         0.98270
C         23.42175         7.77584         0.94565
C         24.64197         5.61602         0.92782
C         24.64920         8.47767         0.76757
C         23.41392        10.62203         0.74637
C         23.41087        12.04168         0.60768
C         24.64744         9.91294         0.66189
C         24.63937        12.75484         0.49821
C         23.39880        14.86568         0.57848
C         23.34086        16.29151         0.91086
C         24.62182        14.18467         0.56605
C         24.64883        17.02325         1.11393
C         23.33025        19.17563         0.93185
C         24.67001        18.54621         1.19729
C         25.83302         2.02254         0.55863
C         25.84471         3.44510         0.72508
C         27.04636         1.31597         0.35835
C         27.08170         4.12788         0.60192
C         25.85527         6.33648         0.81993
C         25.87497         7.75420         0.69550
C         27.13020         5.59050         0.83416
C         27.11001         8.48014         0.45390
C         25.86554        10.62026         0.44002
C         25.87369        12.04798         0.38383
C         27.09975         9.89836         0.29794
C         27.09279        12.77089         0.17835
C         25.86679        14.92672         0.56292
C         25.86872        16.30013         0.73501
C         27.09394        14.20237         0.24965
C         27.14092        17.10468         0.71874
C         25.75224        19.15444         0.34778
C         26.94673        18.50231         0.14637
C         28.25399         1.99786         0.18503
C         28.24469         3.42914         0.26824
C         29.50135         1.28606         0.01895
C         29.42958         4.16082        -0.21612
C         28.40877         6.33919         0.58820
C         28.35145         7.80116         0.36066
C         29.57897         5.60832         0.04562
C         29.54159         8.48465         0.05943
C         28.30551        10.59793        -0.01889
C         28.31240        12.05149        -0.10063
C         29.51341         9.87720        -0.18095
C         29.47784        12.75895        -0.43375
C         28.25236        14.93798        -0.04972
C         28.28639        16.36674         0.06816
C         29.42525        14.21794        -0.56519
C         29.39309        17.10324        -0.28752
C         28.11529        19.19895        -0.28004
C         29.36810        18.55690        -0.26039
C         30.69574         1.92387        -0.25518
C         30.64817         3.36678        -0.60051
C         31.96344         1.24626        -0.14375
C         31.92324         4.11756        -0.80589
C         30.76183         6.27226        -0.17999
C         30.85485         7.73607         0.21121
C         31.96040         5.57556        -0.58420
C         32.04922         8.44176        -0.38439
C         30.73817        10.55822        -0.66697
C         30.72541        12.09752        -0.86071
C         32.02141         9.84561        -0.55477
C         32.02535        12.85628        -0.89237
C         30.71470        14.97982        -0.83665
C         30.70811        16.50495        -0.73051
C         32.01521        14.26354        -0.78588
C         31.76709        17.09969         0.20605
C         30.59539        19.26563        -0.25957
C         31.82334        18.60456        -0.03020
C         33.18438         1.88948        -0.25459
C         33.22075         3.32034        -0.64286
C         34.44868         1.23284        -0.03917
C         34.41741         4.09432        -0.40230
C         33.17406         6.26408        -0.74843
C         33.20822         7.69625        -0.68399
C         34.42390         5.47156        -0.88581
C         34.45146         8.43776        -0.97322
C         33.22585        10.58875        -0.72893
C         33.21893        12.01337        -0.93384
C         34.46978         9.88925        -0.72679
C         34.50461        12.55411        -1.13724
C         33.16777        15.15607        -0.53460
C         33.08940        16.43213        -0.01960
C         34.51363        14.69912        -0.79100
C         34.30756        17.16880         0.41834
C         33.03824        19.28435        -0.01694
C         34.30584        18.63876         0.18562
C         35.65169         1.92254         0.03504
C         35.61691         3.40885         0.03299
C         36.92642         1.27385         0.20613
C         36.92926         4.17843         0.03541
C         35.79429         6.22338        -0.91738
C         35.78557         7.71565        -1.01308
C         36.96547         5.57480        -0.38606
C         37.02388         8.44964        -0.66669
C         35.70733        10.55698        -0.61392
C         35.69422        11.97319        -0.67277
C         36.98740         9.86842        -0.58336
C         36.85122        12.74959        -0.16708
C         35.63267        15.09576        -0.12398
C         35.62866        16.42979         0.52622
C         36.85515        14.26416         0.01919
C         36.93689        17.17696         0.42728
C         35.48913        19.31924         0.00816
C         36.82640        18.70332         0.11541
C         38.14598         1.93727         0.13256
C         38.17403         3.38631        -0.16872
C         39.42400         1.29089         0.25694
C         39.47856         4.11828        -0.23905
C         38.18974         6.33200        -0.14231
C         38.22823         7.77304        -0.44308
C         39.49990         5.59683        -0.00109
C         39.47388         8.46481        -0.41354
C         38.20034        10.57563        -0.48407
C         38.18905        12.01025        -0.12575
C         39.44949         9.89350        -0.50132
C         39.44641        12.77945        -0.23737
C         38.17146        15.00028         0.13017
C         38.14359        16.47464        -0.04982
C         39.45740        14.24681        -0.06038
C         39.23418        17.16382        -0.57580
C         37.93036        19.27717        -0.63798
C         39.10244        18.58222        -0.89214
C         40.62913         1.96170         0.18644
C         40.73304         3.37909        -0.00746
C         41.90956         4.11685        -0.03163
C         40.77594         6.31209        -0.22688
C         40.73342         7.76645        -0.34034
C         41.92516         5.53204        -0.23346
C         41.90567         8.54003        -0.40469
C         40.66723        10.64521        -0.54395
C         40.61730        12.11125        -0.57981
C         41.87611         9.93616        -0.51006
C         41.74264        12.87118        -1.08010
C         40.65732        15.03633        -0.60037
C         40.45844        16.47582        -0.95988
C         41.71401        14.22455        -1.22015
C         41.44856        17.17104        -1.61930
C         40.17682        19.23711        -1.59266
C         41.30726        18.55367        -1.94092
O         34.82795        16.67193         1.71360
O         29.67841         3.75431        -1.62619
O         37.16623        18.17541         1.44217
O         29.85418        14.60547        -1.95815
O          8.91217         8.24964         2.21538
O         40.50099        14.74923         0.82621
O         23.92360        16.49513         2.27728
O          3.81180         3.59143         0.07506
O         38.79291         6.02689         1.20220
O         19.80921         9.33885         2.80489
O         32.63843         3.62734        -1.97355
O         30.55164        11.17738        -1.98700
O         38.78212         3.71308        -1.47165
O         28.03356         5.94892         1.96588
O         13.67714         7.06368        -0.37180
O         35.14538         8.14930        -2.25147
O         14.17344        14.88986         1.80844
O         37.44724        14.59221         1.32364
O         37.36052        12.16747         1.07551
O         14.53577         4.83863         2.55211
O          7.56071         5.68420         1.84727
O          3.68294         6.53669        -2.46979
O         35.22305         5.60143        -2.11323
O         13.95145        10.44263         2.61894
O          5.21954        16.79658         1.49038
O         20.94070         2.36587         2.10736
O         18.56184        15.50994        -1.34131
O         36.21468         3.95211         1.29570
O         34.64397        13.76059        -1.81073
O         14.75079        18.04110        -1.14866
O         12.16327        17.21469        -1.87744
H         12.98768        17.66741        -2.17035
O         17.44641        12.16172        -1.02421
H         16.87972        12.67241        -1.63929
O         31.12306         7.74123         1.65786
H         30.36559         7.30121         2.10253
O          3.15826         7.37830         1.07225
H          3.11601         8.19300         1.61566
O         25.04295        18.85174         2.59498
H         24.49029        18.25519         3.15242
O         27.49811        17.30708         2.12233
H         26.79125        17.87695         2.51698
O         31.35296        16.83545         1.56579
H         32.07454        17.11780         2.16695
O         17.14942         8.63140         3.24826
H         18.03134         8.97090         3.53682
O         18.22586        12.66192         2.50154
H         18.88505        12.23022         3.08474
O         31.02542        16.99149        -2.05644
H         30.50878        16.44301        -2.68871
H          1.25657         1.90538        -3.94562
H          1.05072         4.31499        -3.36588
H          3.15723         0.54714        -3.12469
H          0.43548         5.94231        -1.97999
H          0.29538         8.30395        -1.41453
H          0.31472        10.21017        -1.34454
H          0.32133        12.62644        -1.25039
H          0.37198        14.49728        -1.38139
H          0.44312        16.94325        -1.51755
H          1.65956        19.07442        -1.25970
H          5.32230         0.44711        -1.95685
H          3.72972        20.33464        -0.77897
H          7.57871         0.37023        -1.02707
H          6.15113        20.31828        -0.17672
H          9.92982         0.34274        -0.43284
H          8.57200        20.30779         0.21750
H         12.34851         0.34283        -0.09361
H         11.00512        20.27696         0.52402
H         14.80862         0.35808         0.15991
H         13.30282        20.30954         0.86836
H         17.24986         0.40497         0.15588
H         16.08032        20.17322         1.09507
H         19.51723         0.51184        -0.31436
H         18.41904        20.22849         0.60623
H         22.30628         0.39410        -0.23689
H         20.86393        20.25959         0.73759
H         24.57741         0.27686         0.30622
H         23.28501        20.27288         1.00772
H         27.02092         0.21892         0.28431
H         25.64483        20.20678         0.04243
H         29.49871         0.19994         0.19766
H         28.05577        20.28202        -0.46731
H         31.94554         0.17962         0.12811
H         30.58284        20.36313        -0.34591
H         34.44989         0.13646         0.06269
H         33.04160        20.36867        -0.21040
H         36.92724         0.18327         0.36112
H         35.44984        20.38169        -0.27978
H         39.43398         0.20327         0.42471
H         37.79450        20.27580        -1.08098
H         41.56120         1.38768         0.30088
H         42.87395         3.60077         0.08526
H         42.90804         6.01166        -0.34863
H         42.88504         8.04347        -0.35857
H         42.83052        10.48032        -0.53089
H         42.59099        12.31509        -1.50412
H         42.51786        14.71999        -1.78250
H         42.38565        16.67119        -1.89937
H         40.07224        20.30528        -1.83082
H         42.12749        19.06301        -2.46501
