         280
 CSIRO Nanostructure Databank - Neutral Graphene Oxide Data Set
C         30.71472        31.55377        -1.47539
C         30.82343        32.73032        -1.91574
C         30.65188        35.88847        -1.62199
C         30.75992        37.08368        -1.17554
C         30.53535        40.27493        -1.13367
C         30.55870        41.50767        -1.20368
C         32.86650        28.78942        -0.13628
C         31.83315        29.35866        -0.58515
C         32.99194        31.48642        -0.71364
C         31.69589        30.69099        -0.98338
C         33.23815        32.79457        -1.51000
C         31.95905        33.61890        -1.86736
C         33.02294        35.77093        -0.87825
C         31.91828        35.12963        -1.63551
C         33.09094        37.29438        -0.86740
C         31.69199        38.01181        -0.82815
C         32.95448        40.16715        -0.86747
C         31.60409        39.45651        -0.45005
C         32.92837        41.67245        -0.69931
C         31.66910        42.46937        -1.34611
C         32.78258        44.31895        -0.33117
C         31.67543        43.77107        -0.57396
C         35.47461        27.29391         1.07160
C         35.28783        28.63401         0.61336
C         34.18427        29.26347         0.08503
C         35.55889        31.41135        -0.33810
C         34.20731        30.75372        -0.19217
C         35.56266        32.91196        -0.51430
C         34.29030        33.63631        -0.78948
C         35.25732        35.63353         0.33752
C         34.15768        35.00884        -0.52311
C         35.21095        37.18336         0.53320
C         33.91078        37.95767         0.25523
C         35.24729        40.15017         0.12099
C         34.11078        39.45837        -0.13536
C         35.39511        41.61413        -0.32027
C         34.06946        42.36487        -0.31311
C         35.35170        44.58056        -0.08832
C         34.07311        43.79256        -0.10653
C         35.32260        45.98950         0.52050
C         37.73644        27.23112         1.99002
C         36.32356        26.84751         1.88141
C         37.82143        28.64905         1.25664
C         36.50726        29.45014         1.06443
C         37.80664        31.58240         0.87355
C         36.79455        30.67176         0.18586
C         37.78855        33.01001         0.60066
C         36.73922        33.66194        -0.00694
C         37.80611        35.95627         0.34931
C         36.64190        35.16773        -0.20711
C         37.78690        37.30920         0.58387
C         36.46490        37.97895         0.73051
C         37.67846        40.20905         1.13040
C         36.41116        39.48254         0.78163
C         37.76876        41.62556         0.64804
C         36.45508        42.33961         0.50940
C         37.76625        44.50486         1.17366
C         36.44769        43.82169         0.68494
C         37.78394        46.03165         0.92484
C         36.45229        46.46006         0.80441
C         39.14898        25.94885        -1.22852
C         38.30459        26.58154        -0.56918
C         39.95268        27.51754         0.88141
C         38.43997        27.36301         0.66021
C         40.19263        28.83578         1.49748
C         38.99839        29.52315         1.53557
C         40.25413        31.61155         1.03638
C         38.93454        30.96470         1.40329
C         40.29573        33.10963         1.37766
C         38.95538        33.79577         1.09675
C         40.29926        35.95699         0.70479
C         39.00764        35.24844         0.82320
C         40.26155        37.40438         0.72858
C         39.02422        38.03876         0.81964
C         40.27584        40.24234         1.24720
C         38.98633        39.46507         1.22222
C         40.29703        41.78988         1.30951
C         39.05421        42.37927         0.62269
C         40.30318        44.61531         0.86785
C         38.99536        43.89633         0.42071
C         40.23378        46.04242         0.35124
C         38.95311        46.71248         0.57925
C         40.04369        48.70066        -0.26497
C         39.07106        48.09025         0.24348
C         41.74163        25.58205        -1.88771
C         40.55639        26.43088        -1.45943
C         42.42375        27.47450         0.11553
C         40.99875        26.95823        -0.04099
C         42.68409        28.72962         0.92997
C         41.56253        29.43046         1.74215
C         42.81104        31.65043         1.08760
C         41.55067        30.94973         1.51257
C         42.73484        33.03688         0.48351
C         41.45447        33.79051         0.62890
C         42.74631        35.99502         0.22733
C         41.46999        35.27211         0.58839
C         42.73689        37.44991         0.64481
C         41.53267        38.10426         0.76566
C         42.78245        40.27643         1.28434
C         41.52833        39.60356         0.67666
C         42.75422        41.71059         0.77629
C         41.57651        42.40523         0.75183
C         42.66577        44.49770         0.02852
C         41.55248        43.84470         0.46471
C         42.54033        45.84705        -0.65330
C         41.32826        46.67897        -0.21938
C         42.52384        48.63316        -1.03086
C         41.29618        48.10883        -0.54964
C         42.88439        26.08553        -1.73409
C         44.75903        27.58991        -0.76458
C         43.47073        27.04059        -0.86429
C         45.02686        28.76275         0.01813
C         43.92029        29.48563         0.58956
C         45.25693        31.57497         0.27067
C         44.00354        30.85737         0.72819
C         45.25592        33.03340         0.81602
C         44.04325        33.79541         0.24026
C         45.25381        35.97848         0.45473
C         43.97247        35.24350         0.76911
C         45.24896        37.35637         0.47559
C         44.02607        38.15846         0.68674
C         45.40189        40.24947         1.16017
C         44.06651        39.51783         0.94915
C         45.33736        41.76438         0.83865
C         44.02417        42.45649         0.65457
C         45.19866        44.64649         0.26433
C         43.98950        43.76243        -0.13306
C         45.09922        46.00189        -0.48316
C         43.88543        46.62114        -0.66994
C         43.58187        47.94446        -1.02416
C         47.11843        27.65785        -1.45893
C         45.98012        27.16650        -1.39654
C         47.59223        28.71983        -0.53906
C         46.39028        29.35036         0.16881
C         47.72361        31.55025         0.23529
C         46.50390        30.78727         0.72193
C         47.81243        33.02214         0.61317
C         46.51793        33.80929         0.46622
C         47.66545        35.88800        -0.25193
C         46.47872        35.17311         0.30248
C         47.67677        37.39387        -0.24892
C         46.58831        38.06393         0.59042
C         47.89336        40.22763         0.39613
C         46.47315        39.57866         0.27639
C         47.85630        41.76492         0.39357
C         46.55987        42.49653         0.35992
C         47.75312        44.56893        -0.26533
C         46.51917        43.85411         0.09239
C         47.52089        45.93424        -0.59543
C         46.40100        46.48748        -0.68699
C         50.15220        28.83729        -0.78982
C         48.80879        29.55309        -0.87355
C         50.27340        31.56112        -0.09557
C         48.99606        30.75479         0.14782
C         50.23378        33.01187        -0.03908
C         49.04244        33.71122         0.05558
C         50.21550        35.95699        -0.54987
C         48.96036        35.13066        -0.38970
C         50.14389        37.45693        -0.66281
C         48.94925        38.13443        -0.47800
C         50.19947        40.36042        -0.76073
C         48.85045        39.64376        -0.69647
C         50.32159        41.70356        -0.47936
C         49.12481        42.47875         0.00972
C         50.25410        44.41949        -0.68655
C         48.98893        43.92972        -0.36461
C         51.21547        29.47219        -0.69904
C         52.59739        31.69947        -0.54142
C         51.45371        30.84919        -0.38786
C         52.67205        32.91535        -0.30477
C         51.53470        33.79611        -0.04413
C         52.66616        36.13225        -0.62500
C         51.53347        35.28445        -0.18243
C         52.45809        37.32759        -0.93410
C         51.33587        38.16539        -1.04960
C         52.52275        40.35576        -1.42877
C         51.26530        39.56424        -1.55968
C         52.59223        41.58214        -1.23129
C         51.56588        42.46193        -0.78887
C         51.37029        43.84160        -0.86964
O         41.83993        33.18857        -0.65631
O         39.76666        39.65201         2.45675
O         44.71665        42.50228         1.96115
O         35.69446        37.45885         1.88519
O         35.91546        42.94356         1.71912
O         38.64353        34.72889         2.19047
O         51.61833        34.69085         1.11440
O         36.68419        39.97751         2.14825
O         38.59008        41.66720        -0.58781
O         33.32433        31.53497         0.69671
O         48.78235        42.29264         1.42309
O         42.94060        27.40476         1.47067
O         40.35227        42.15479         2.66901
O         42.37259        31.62823         2.49378
O         47.25124        36.65862        -1.43846
O         32.22937        34.53384        -2.94465
O         35.88127        31.96798        -1.64513
O         49.59833        35.31308        -1.70686
O         40.60242        26.24626         1.16544
O         47.33898        28.42885         0.83357
O         46.52149        30.68112         2.15962
H         47.17613        29.97614         2.37568
O         46.98996        37.82534         1.95789
H         46.68441        38.58547         2.51253
O         31.92060        42.71517        -2.70104
H         32.67324        43.33419        -2.78780
O         40.25992        31.40586        -0.40999
H         39.45012        30.91065        -0.68352
O         45.92466        39.74443        -1.04066
H         46.59379        39.45879        -1.71154
O         49.17097        30.15168         1.46030
H         49.28476        30.88961         2.10019
O         40.50661        27.55914        -2.30603
H         40.23768        27.27686        -3.20451
O         44.16203        43.44197        -1.54371
H         43.49929        42.75995        -1.78493
O         38.45112        26.96405         3.13311
H         39.29897        26.51635         2.92693
O         37.52233        30.18111        -0.97353
H         37.25627        30.75542        -1.73438
O         38.82921        44.18507        -0.97372
H         38.62160        43.34241        -1.44057
O         42.81900        36.02566        -1.23432
H         42.01353        36.47593        -1.56541
O         48.29333        39.84169        -2.02623
H         48.97645        39.51632        -2.66904
O         35.84338        41.59047        -1.70373
H         36.82506        41.52129        -1.71483
O         33.75665        37.61903        -2.09901
H         33.25385        37.22642        -2.84413
O         33.71598        32.35018        -2.79321
H         33.76001        33.13385        -3.38374
O         44.27527        33.87123        -1.17777
H         43.50781        34.34423        -1.58389
O         36.62037        35.43501        -1.63753
H         37.29508        34.87613        -2.07608
O         31.44673        39.62915         0.94772
H         30.76093        39.01575         1.28161
O         37.89043        44.28412         2.56598
H         37.15682        43.69543         2.86401
O         48.03666        32.95786         2.07274
H         47.19691        32.60078         2.46735
O         45.16333        32.90515         2.24369
H         44.78830        33.74255         2.61347
O         35.08238        35.03407         1.62668
H         35.50508        35.62462         2.29404
O         40.54958        33.22274         2.78125
H         39.99123        33.95966         3.12847
O         48.46284        39.81202         1.64135
H         48.87007        40.60470         2.06722
O         50.83297        39.51576        -2.94384
H         51.07658        40.36333        -3.37327
O         40.38092        44.74392         2.28796
H         40.36314        43.81394         2.68646
O         35.80468        44.72036        -1.43690
H         35.16343        45.27446        -1.92869
O         48.65543        30.08590        -2.16735
H         48.35744        29.37511        -2.77432
O         36.16539        29.96892         2.35998
H         35.99459        29.21654         2.96634
O         33.14109        37.86532         1.45651
H         33.75412        38.02273         2.21039
O         42.30019        45.53320        -2.05423
H         43.02028        44.92394        -2.34162
O         45.09378        45.05022         1.63339
H         45.07996        44.23625         2.19618
O         33.08365        39.96134        -2.28909
H         33.91725        40.38941        -2.58232
O         41.52285        39.89997        -0.75224
H         42.33679        39.51265        -1.14053
O         45.34554        31.51199        -1.16442
H         44.84702        32.28076        -1.54608
O         41.85865        29.20115         3.12944
H         42.38627        29.97080         3.44862
O         45.74257        40.13027         2.55172
H         45.01923        40.56740         3.05917
O         43.81405        35.19307         2.21048
H         43.93283        36.09794         2.57145
O         42.67816        40.33109         2.72245
H         41.91284        40.92965         2.95093
