         429
 CSIRO Nanostructure Databank - Neutral Graphene Oxide Data Set
C          1.80615         1.43556         2.42932
C          1.92462         2.68361         3.04840
C          2.73020         1.07765         1.46040
C          2.90974         3.58340         2.61910
C          1.66728         6.68149         2.91646
C          1.54580         8.00175         2.49691
C          2.83140         5.95976         2.63891
C          2.66393         8.66591         1.95125
C          1.44868        10.88122         1.88928
C          1.44217        12.25560         1.81805
C          2.65017        10.10192         1.78269
C          2.64856        13.02288         1.75025
C          1.45431        15.21099         1.70473
C          1.43419        16.53499         1.43390
C          2.67272        14.41961         1.62943
C          2.63623        17.23527         0.86521
C          2.69498        18.71308         1.16723
C          3.77053         1.96145         1.07270
C          3.82981         3.29598         1.59506
C          4.86053         1.39382         0.34371
C          4.83101         4.25275         1.02071
C          3.90860         6.50077         1.87739
C          3.86333         7.92874         1.68677
C          5.00037         5.72037         1.35906
C          5.04558         8.62013         1.28636
C          3.86816        10.77187         1.56968
C          3.90488        12.23459         1.79910
C          5.06713        10.05713         1.31337
C          5.22149        12.94419         1.66235
C          3.92087        15.16913         1.49587
C          3.91891        16.51618         1.21791
C          5.22033        14.44866         1.62329
C          5.20349        17.32966         1.25322
C          3.83544        19.40454         0.98786
C          5.07930        18.70914         0.65030
C          6.03652         2.10326         0.14720
C          5.97298         3.57745         0.26133
C          7.25031         1.42031        -0.13052
C          7.24852         4.31250         0.01288
C          6.15323         6.42113         0.88097
C          6.20526         7.86447         0.94374
C          7.30583         5.74381         0.34795
C          7.38519         8.57430         0.55098
C          6.28481        10.76227         1.00093
C          6.35757        12.19824         1.08277
C          7.39756         9.99513         0.57488
C          7.47253        12.92164         0.60422
C          6.46124        15.14827         1.12475
C          6.36807        16.55037         0.70096
C          7.55456        14.33247         0.58636
C          7.38856        17.12838        -0.01752
C          6.08671        19.29011        -0.03717
C          7.29492        18.54462        -0.54768
C          8.52187         2.01372        -0.11535
C          8.55564         3.51683        -0.12450
C          9.65497         1.18477        -0.33654
C          9.78459         4.32003        -0.01961
C          8.50174         6.44135         0.04207
C          8.55361         7.85771         0.12387
C          9.73017         5.72707        -0.23946
C          9.79052         8.54138        -0.15009
C          8.58309        10.68144         0.04744
C          8.60297        12.18433         0.01552
C          9.83515         9.93105        -0.07743
C          9.87542        12.90308        -0.12621
C          8.64776        15.01671        -0.03531
C          8.58507        16.38839        -0.30150
C          9.86944        14.27429        -0.30449
C          9.75276        17.10271        -0.94853
C          8.62080        19.24441        -0.34189
C          9.80572        18.57036        -0.54759
C         10.98519         1.57616        -0.02837
C         11.03575         3.73712         0.23584
C         12.21539         1.19963        -0.54635
C         12.26309         4.25445        -0.21613
C         10.94874         6.41174        -0.48081
C         11.00470         7.81594        -0.46078
C         12.15181         5.60813        -0.90997
C         12.22622         8.52815        -0.74499
C         11.11454        10.62634        -0.09468
C         11.13266        12.16817        -0.10764
C         12.30695         9.92042        -0.58143
C         12.33348        12.84115        -0.59125
C         11.08431        14.96623        -0.63715
C         11.07371        16.38485        -0.78174
C         12.28642        14.22540        -0.80316
C         12.28608        17.09591        -0.83224
C         11.07053        19.22682        -0.50306
C         12.29294        18.54417        -0.69159
C         13.42445         1.99335        -0.40224
C         13.41455         3.44913        -0.32526
C         14.65108         1.32909        -0.57315
C         14.69861         4.15739        -0.52245
C         13.42269         6.39777        -0.93296
C         13.44633         7.79249        -1.04876
C         14.68069         5.65094        -0.82777
C         14.66689         8.51270        -1.27208
C         13.51813        10.65325        -0.79471
C         13.53013        12.07090        -0.78250
C         14.73152         9.93000        -1.14286
C         14.76644        12.78842        -0.93928
C         13.50758        14.94276        -1.30825
C         13.53303        16.39846        -0.91667
C         14.77347        14.19306        -0.99064
C         14.75208        17.06661        -0.78524
C         13.53200        19.21825        -0.69003
C         14.77430        18.52414        -0.71611
C         15.91727         1.98717        -0.69367
C         15.93598         3.41084        -0.79964
C         17.14018         1.28972        -0.74964
C         17.14300         4.08702        -1.04850
C         15.84744         6.24876        -1.52461
C         15.85758         7.75326        -1.71298
C         17.13617         5.49410        -1.49987
C         17.17777         8.43533        -1.69161
C         15.94346        10.63249        -1.34580
C         16.00295        12.04986        -1.12647
C         17.11877         9.91844        -2.00321
C         17.20396        12.76388        -1.10555
C         15.98501        14.92049        -0.86197
C         15.98444        16.31557        -0.77316
C         17.21864        14.13678        -0.47690
C         17.25971        17.00182        -0.50616
C         15.98921        19.21651        -0.77481
C         17.27473        18.55093        -0.57750
C         18.38010         1.97731        -0.83013
C         18.38230         3.40613        -0.99760
C         19.61441         1.28845        -0.77542
C         19.62933         4.13368        -1.00962
C         18.42689         6.27647        -1.48245
C         18.34526         7.76023        -1.48665
C         19.65963         5.55636        -1.08712
C         19.59005         8.49604        -1.15082
C         18.46184        10.64803        -1.85537
C         18.47118        12.13627        -1.46917
C         19.69210         9.91919        -1.51539
C         19.73647        12.73813        -1.07688
C         18.50855        14.88867        -0.69901
C         18.53192        16.26573        -0.72753
C         19.79129        14.12463        -0.50313
C         19.76602        17.00240        -0.85817
C         18.54923        19.16393        -0.92064
C         19.74382        18.43221        -0.96629
C         20.85786         1.97061        -0.76442
C         20.85666         3.42881        -0.83414
C         22.06218         1.25161        -0.73760
C         22.06945         4.14594        -0.82916
C         20.87104         6.25902        -0.95223
C         20.85862         7.73663        -0.84122
C         22.09727         5.56196        -0.88435
C         22.13349         8.46546        -0.87869
C         20.89531        10.58869        -1.38596
C         20.92541        12.04046        -1.29278
C         22.14122         9.87642        -1.08981
C         22.16943        12.73560        -1.27357
C         21.01236        14.87768        -0.96522
C         20.99719        16.28962        -1.03661
C         22.20497        14.15377        -1.20461
C         22.22214        16.98924        -1.31652
C         20.99023        19.10235        -1.22144
C         22.17748        18.42184        -1.38336
C         23.35462         1.90286        -0.59055
C         23.34991         3.43733        -0.61617
C         24.63477         1.25394        -0.85128
C         24.59285         4.12719        -1.12946
C         23.36757         6.28570        -0.76652
C         23.36674         7.75022        -0.72398
C         24.55959         5.59094        -0.75298
C         24.56245         8.46319        -0.62789
C         23.34414        10.58388        -1.07965
C         23.40036        11.96962        -1.64481
C         24.57088         9.96489        -0.49273
C         24.67298        12.72356        -1.37296
C         23.44186        14.85554        -1.44403
C         23.44333        16.27074        -1.49192
C         24.66795        14.10034        -1.50624
C         24.71702        16.98388        -1.62321
C         23.41708        19.21241        -1.71331
C         24.71393        18.44316        -1.59245
C         25.84648         1.96982        -0.76972
C         25.86253         3.39990        -0.75721
C         27.10557         1.28143        -0.76431
C         27.08375         4.09891        -0.66399
C         25.82902         6.25879        -0.45563
C         25.82839         7.77482        -0.37990
C         27.11012         5.54079        -0.65150
C         27.08932         8.49677        -0.62107
C         25.87161        10.63151        -0.88881
C         25.90533        11.98674        -1.20033
C         27.09464         9.87431        -0.78553
C         27.17309        12.70451        -1.25115
C         25.94811        14.80105        -1.87614
C         25.91188        16.28606        -1.63576
C         27.20363        14.09010        -1.41583
C         27.20600        16.97713        -1.75110
C         25.87199        19.15557        -1.52616
C         27.18288        18.51671        -1.67734
C         28.30640         1.95978        -0.70165
C         28.32290         3.38772        -0.61757
C         29.60008         1.18495        -0.80536
C         29.54621         4.10921        -0.45216
C         28.30621         6.24075        -0.62938
C         28.33641         7.71639        -0.96604
C         29.54302         5.53605        -0.45784
C         29.58067         8.44653        -0.52954
C         28.36254        10.58234        -0.88019
C         28.38946        11.95154        -1.06125
C         29.59173         9.84370        -0.59708
C         29.71634        12.63199        -1.28390
C         28.45913        14.81767        -1.31054
C         28.46322        16.28159        -1.40470
C         29.64342        14.13184        -1.10761
C         29.62530        17.02176        -1.25194
C         28.38934        19.16695        -1.19991
C         29.58683        18.47030        -1.08640
C         30.82982         1.96820        -0.40339
C         30.77688         3.39613        -0.27126
C         32.02736         1.29952        -0.25114
C         31.95123         4.11327         0.07512
C         30.73769         6.25660        -0.14423
C         30.74343         7.72272        -0.13765
C         31.88804         5.53275         0.21727
C         31.88432         8.43996         0.25508
C         30.78481        10.57713        -0.28454
C         30.84847        11.98475        -0.50357
C         31.92932         9.86978         0.19272
C         32.00361        12.69321        -0.15274
C         30.94482        14.83879        -1.09223
C         30.94292        16.34226        -1.13904
C         32.17461        14.11308        -0.60268
C         32.13000        17.10397        -0.58554
C         30.73248        19.16549        -0.58939
C         31.92546        18.53047        -0.23483
C         33.25018         2.00128        -0.01128
C         33.20974         3.41887         0.17211
C         34.49034         1.33523         0.05744
C         34.42999         4.11583         0.33332
C         33.03428         6.22191         0.82893
C         33.00027         7.71832         0.90635
C         34.38695         5.50654         0.82887
C         34.25318         8.45139         1.24531
C         33.08692        10.61341         0.58742
C         33.08672        12.00743         0.47278
C         34.41263         9.90163         0.80315
C         34.21287        12.80012         1.02729
C         33.46282        14.90770        -0.27465
C         33.24506        16.38021         0.07872
C         34.35806        14.21775         0.72205
C         34.19361        17.08024         0.77198
C         32.96755        19.22009         0.39245
C         34.14434        18.54941         0.83591
C         35.71655         2.02601         0.08069
C         35.67775         3.47614         0.13053
C         36.93149         1.24551         0.26608
C         36.85880         4.30630         0.18349
C         35.61633         6.30270         0.91021
C         35.55513         7.68416         1.54180
C         36.83251         5.68281         0.64377
C         36.76168         8.53309         1.18060
C         35.41150        10.57275         1.79980
C         35.40028        12.09187         1.67736
C         36.77269         9.95776         1.56628
C         36.67696        12.82571         1.65157
C         35.41923        14.91871         1.31122
C         35.20709        16.37498         1.66663
C         36.60527        14.24464         1.68529
C         36.50761        17.15589         1.89053
C         35.23527        19.28865         1.25579
C         36.48928        18.66445         1.69749
C         38.16749         1.67887        -0.16447
C         38.09743         3.82596        -0.23506
C         39.51283         1.30555         0.18589
C         39.34285         4.39253         0.13630
C         38.08867         6.38355         0.77137
C         38.06097         7.85255         0.93090
C         39.32350         5.76751         0.56800
C         39.30784         8.54042         1.43038
C         37.95728        10.70213         1.47938
C         37.89709        12.14109         1.53434
C         39.23526        10.04544         1.29108
C         39.11034        12.93910         1.14036
C         37.83878        14.99492         2.13371
C         37.80637        16.47523         1.82050
C         39.12195        14.34468         1.68717
C         38.98357        17.20645         1.77892
C         37.76215        19.33293         1.46535
C         38.95781        18.65647         1.61016
C         40.57233         2.19074         0.13494
C         40.54044         3.63520         0.09979
C         41.76069         4.37087         0.27108
C         40.57837         6.49782         0.66876
C         40.57837         7.88204         0.93491
C         41.77868         5.73208         0.47182
C         41.74691         8.69677         0.91891
C         40.43794        10.77940         1.23813
C         40.41980        12.20918         1.29986
C         41.68617        10.05790         1.09850
C         41.58867        12.99589         1.34203
C         40.29969        15.07151         1.67293
C         40.27437        16.53394         1.80550
C         41.53851        14.37749         1.44317
C         41.43064        17.28991         1.81088
C         40.20687        19.37167         1.55721
C         41.39470        18.71101         1.70487
O         33.53160         5.60616         2.04657
O         23.45601         2.78203         0.64021
O         11.33897        11.40651         1.14131
O          4.83782         4.15345        -0.45637
O         37.31599         8.42611        -0.19103
O         17.89601         5.68514        -2.72889
O          7.80243         4.00255        -1.30370
O          2.96340         4.77022         3.34545
O         34.35479        12.63840         2.51841
O         11.04593         2.56689         0.98634
O         27.33153        17.80084        -2.96045
O         36.39695        18.04470         3.06506
O          8.26572        11.43469        -1.22170
O         33.24650         8.25493         2.26948
O          4.76414        12.49471         2.98584
O         18.59096        11.65422        -2.89644
O         31.88871        14.22442        -2.05106
O         14.95468         5.18820         0.53805
O         31.98229        16.85993        -2.03274
O         17.29162        17.78380         0.70806
O          6.17918        14.97809         2.59814
O         38.12239         2.73383        -1.10533
O         19.97356         8.22433         0.25574
O         25.82726         6.95091         0.85402
O         15.55035         6.82414        -2.81931
O         11.91163         5.23363        -2.32419
H         11.76202         6.06076        -2.83077
O          7.10351        18.45827        -1.99549
H          7.86935        17.94906        -2.36544
O         24.50235        10.20460         0.97556
H         23.77448         9.64974         1.33117
O         25.98726        14.69218        -3.35672
H         26.68064        15.30938        -3.67882
O          5.47972        17.57089         2.67061
H          5.72896        16.69493         3.06176
O         35.06526         9.93851        -0.48774
H         34.42896         9.67270        -1.18332
O         23.46391        20.42193        -0.94552
H         23.43486        20.18414         0.00362
O         29.51998        -0.04405        -0.07250
H         29.40989         0.17249         0.87592
O         19.95799        13.95521         0.96181
H         19.99586        14.85333         1.35437
O         35.01687        10.24271         3.14073
H         34.40178        10.94965         3.44580
O         24.49459         4.06789        -2.59165
H         25.30890         4.46349        -2.96817
O         30.02080        12.39867        -2.70235
H         30.81973        12.94720        -2.90250
O         37.82968        14.92649         3.60432
H         37.03096        15.40630         3.91445
O         28.36490         7.71508        -2.44870
H         28.50533         8.64186        -2.74212
O         23.38494        11.80329        -3.12253
H         23.60002        12.67424        -3.52168
O         35.63375         7.47419         2.96596
H         34.70859         7.34920         3.28481
O         38.95188        13.12199        -0.33654
H         39.78464        13.52537        -0.66469
O          2.51268        17.13844        -0.60147
H          2.38276        16.19244        -0.82446
O         34.54102        16.30107         2.96348
H         34.83461        17.10134         3.46523
O          9.48751        17.08340        -2.40388
H         10.26959        17.47435        -2.84970
O         39.28978         8.27840         2.88229
H         40.08646         8.69956         3.26920
O         34.24659        14.95191        -1.50075
H         33.62251        15.22643        -2.21501
O         17.09863        13.92165         0.97553
H         17.08236        14.80390         1.40445
O         16.78272         9.94645        -3.42460
H         17.21863        10.74830        -3.80011
O         13.40398        14.95122        -2.78819
H         13.41875        14.01607        -3.08536
H          1.01612         0.73687         2.73542
H          1.24401         2.98338         3.85514
H          2.70052         0.07489         1.01192
H          0.86483         6.20072         3.49047
H          0.61824         8.54882         2.70790
H          0.48322        10.36368         1.97250
H          0.47300        12.77299         1.83053
H          0.53003        14.71973         2.04089
H          0.49481        17.10124         1.52402
H          1.75519        19.23051         1.41243
H          4.84123         0.31214         0.14394
H          3.84900        20.50164         1.08200
H          7.19453         0.32473        -0.22324
H          5.95795        20.31789        -0.41298
H          9.47208         0.17842        -0.74461
H          8.63837        20.32920        -0.15066
H         12.28225         0.29622        -1.17105
H         11.09286        20.30561        -0.28515
H         14.64085         0.23009        -0.62827
H         13.54203        20.31596        -0.61506
H         17.14078         0.19241        -0.67188
H         15.98208        20.30439        -0.94144
H         19.61083         0.19125        -0.69395
H         18.55983        20.22533        -1.20996
H         22.03670         0.16101        -0.88083
H         20.99376        20.20035        -1.29175
H         24.65631         0.16927        -1.03217
H         23.33522        19.53410        -2.79056
H         27.11181         0.18246        -0.80970
H         25.82454        20.24909        -1.40778
H         29.72728         0.89042        -1.88675
H         28.33726        20.21667        -0.87617
H         32.05128         0.20586        -0.36683
H         30.62891        20.24126        -0.38420
H         34.50206         0.23562         0.02401
H         32.87888        20.30393         0.55601
H         36.84228         0.29856         0.81970
H         35.19272        20.38658         1.20003
H         39.71195         0.27099         0.50548
H         37.76078        20.39648         1.18358
H         41.57042         1.76556         0.33421
H         42.71391         3.82350         0.21869
H         42.75151         6.23712         0.55360
H         42.72491         8.23768         0.71368
H         42.62473        10.62586         1.05692
H         42.57714        12.51675         1.31193
H         42.48342        14.93581         1.43774
H         42.41523        16.80662         1.86585
H         40.18188        20.46462         1.44118
H         42.34279        19.26668         1.70320
