         430
 CSIRO Nanostructure Databank - Neutral Graphene Oxide Data Set
C         27.98140        27.37293         1.19460
C         27.93621        28.75881         0.98674
C         26.61982        29.47926         1.14715
C         27.86303        31.62726         0.83583
C         26.78878        30.96193         1.28973
C         27.89806        33.14180         0.90241
C         26.64857        33.78063         0.33291
C         27.82016        35.90388         0.03371
C         26.62448        35.09338        -0.00306
C         27.82002        37.29595         0.05200
C         26.60141        38.06530         0.02517
C         27.84199        40.18278        -0.01244
C         26.61144        39.42788        -0.02930
C         27.83691        41.63107        -0.04366
C         26.63266        42.38082        -0.07114
C         27.85342        44.49346        -0.21329
C         26.63326        43.76083        -0.15034
C         27.88014        45.90692        -0.28207
C         30.32874        27.32928         0.57403
C         29.15320        26.66287         0.93470
C         30.32872        28.74492         0.47996
C         29.10100        29.44543         0.61725
C         30.34653        31.60891         0.33781
C         29.02261        30.89246         0.19295
C         30.33607        33.03583         0.26687
C         29.13296        33.73250         0.29152
C         30.30093        35.88483         0.52960
C         29.13627        35.17608        -0.14735
C         30.30094        37.36327         0.23602
C         29.07789        38.03838         0.09887
C         30.33513        40.20639         0.31972
C         29.05034        39.47068         0.04635
C         30.31991        41.66077        -0.07095
C         29.08371        42.35115        -0.08778
C         30.31965        44.49773        -0.20148
C         29.08674        43.77742        -0.18675
C         30.32219        45.92363        -0.33127
C         29.08566        46.59758        -0.35446
C         32.85211        24.51714         0.56836
C         31.65637        25.15938         0.56961
C         32.83470        27.35064         0.28642
C         31.54946        26.58047         0.09119
C         32.81902        28.76315         0.28192
C         31.57378        29.47149         0.30042
C         32.81647        31.63172         0.18392
C         31.56222        30.90044         0.28792
C         32.81807        33.02150         0.04060
C         31.59712        33.76489         0.12592
C         32.81904        35.90747         0.17135
C         31.59716        35.16034         0.21276
C         32.78810        37.29923         0.12269
C         31.55643        38.05766         0.10627
C         32.79430        40.16773        -0.43610
C         31.56509        39.43739        -0.07171
C         32.80543        41.66091        -0.36458
C         31.53143        42.38252        -0.12361
C         32.82008        44.52410         0.17730
C         31.54520        43.78221        -0.13935
C         32.82593        45.94289        -0.33034
C         31.59794        46.62347        -0.50334
C         32.84450        48.63218        -1.08571
C         31.63192        47.97639        -0.90522
C         35.31810        23.10798        -0.22599
C         35.31525        24.49117         0.07322
C         34.08282        25.21432         0.31621
C         35.29963        27.37183         0.30439
C         34.06866        26.64048         0.29647
C         35.31209        28.76521         0.32701
C         34.06540        29.49708         0.30571
C         35.29932        31.64306         0.36829
C         34.06271        30.90499         0.26097
C         35.33523        33.00913         0.16864
C         34.09904        33.74660        -0.29929
C         35.29033        35.87238         0.29847
C         34.09549        35.20660         0.11141
C         35.27460        37.36028         0.64263
C         34.08314        38.00105        -0.02649
C         35.34059        40.23697        -0.11856
C         34.10600        39.45505        -0.34590
C         35.33018        41.63369        -0.17434
C         34.09111        42.38327        -0.20664
C         35.32794        44.49733        -0.13186
C         34.08889        43.76104        -0.12348
C         35.31972        45.89752        -0.30272
C         34.06560        46.61430        -0.48655
C         35.35136        48.72326        -1.13470
C         34.06437        47.98321        -0.85668
C         35.34251        50.16353        -0.68256
C         37.72241        23.13918        -0.59492
C         36.49827        22.45571        -0.56906
C         37.74553        24.51758        -0.25556
C         36.54519        25.18783         0.04639
C         37.74165        27.38339        -0.22151
C         36.60729        26.63309         0.47985
C         37.78792        28.81703         0.27678
C         36.57892        29.47531         0.43778
C         37.80847        31.65051         0.65130
C         36.51744        30.91720         0.89414
C         37.82820        33.03020         0.47846
C         36.56575        33.75522         0.29444
C         37.79271        35.89399         0.55890
C         36.53537        35.14852         0.31862
C         37.80468        37.40902         0.55994
C         36.54836        38.12320         0.34339
C         37.82085        40.22519         0.06048
C         36.56540        39.49529         0.08366
C         37.82418        41.63189        -0.03337
C         36.56969        42.36936        -0.07259
C         37.82818        44.50727         0.25241
C         36.55724        43.76091        -0.05151
C         37.80881        45.94347        -0.19503
C         36.57417        46.62577        -0.38387
C         37.80134        48.74756        -0.56831
C         36.58614        48.01148        -0.64133
C         37.78970        50.17941        -0.58681
C         36.49992        50.84106        -0.51657
C         40.21283        20.36911        -1.49397
C         39.02137        21.02078        -1.30304
C         40.21088        23.00068        -0.32963
C         39.00085        22.51613        -1.11964
C         40.24744        24.46899        -0.00612
C         39.00850        25.25397        -0.16768
C         40.29202        27.32675         0.13623
C         39.04287        26.62533        -0.07384
C         40.26850        28.76530         0.36173
C         39.05863        29.45763         0.46729
C         40.32541        31.62545         0.58514
C         39.07146        30.88814         0.96028
C         40.30904        33.04927         0.54554
C         39.06764        33.74666         0.46971
C         40.29785        35.96419         0.45916
C         39.05630        35.20338         0.08974
C         40.30804        37.36219         0.44258
C         39.07532        38.11254         0.35530
C         40.29767        40.24260         0.15625
C         39.06936        39.51357         0.18571
C         40.30353        41.62129        -0.10324
C         39.06059        42.34217        -0.14509
C         40.26116        44.48058        -0.36598
C         39.07645        43.77063        -0.17382
C         40.28567        45.91010        -0.31130
C         39.03165        46.63003        -0.29894
C         40.27107        48.76534        -0.42438
C         39.04068        48.05052        -0.43525
C         40.25697        50.18703        -0.47964
C         39.01232        50.89786        -0.54862
C         40.23192        53.01765        -0.55699
C         39.04769        52.33195        -0.59408
C         42.71500        20.39829        -1.62356
C         41.46918        21.00951        -1.29916
C         42.78594        23.08464        -0.54210
C         41.50182        22.29445        -0.58287
C         42.74063        24.54129        -0.27383
C         41.53735        25.19412        -0.00692
C         42.78348        27.29959         0.55842
C         41.49680        26.62140         0.16405
C         42.75741        28.79185         0.36335
C         41.53942        29.47385         0.43288
C         42.76926        31.63174         0.35615
C         41.53566        30.91869         0.45653
C         42.76092        33.06351         0.41721
C         41.54415        33.75977         0.51961
C         42.79084        35.94637         0.41817
C         41.54402        35.22858         0.85581
C         42.77639        37.37105         0.33815
C         41.55867        38.07562         0.44180
C         42.81246        40.23023         0.02668
C         41.57470        39.57072         0.58526
C         42.75759        41.61871        -0.28005
C         41.55089        42.32264        -0.29519
C         42.76830        44.52603        -0.53523
C         41.50159        43.74782        -0.80871
C         42.76851        45.89978        -0.37247
C         41.50810        46.62557        -0.34539
C         42.74686        48.77191        -0.32063
C         41.51589        48.05149        -0.35751
C         42.73553        50.20317        -0.33145
C         41.49158        50.90500        -0.42835
C         42.70670        53.03246        -0.40495
C         41.48152        52.32714        -0.46382
C         43.89647        21.09053        -1.59238
C         45.24095        23.20025        -0.97870
C         43.92475        22.58784        -1.41574
C         45.23350        24.56864        -0.59031
C         43.99539        25.26895        -0.32127
C         45.24713        27.35714        -0.00630
C         44.01959        26.62995        -0.00097
C         45.24039        28.78654         0.14364
C         43.99810        29.49354         0.26638
C         45.23954        31.63319         0.20294
C         44.00111        30.91953         0.26770
C         45.22719        33.06981         0.22013
C         44.00641        33.78295         0.33113
C         45.20608        35.92714         0.03187
C         43.98562        35.21985         0.26999
C         45.20331        37.35729        -0.07741
C         44.00648        38.08714         0.09287
C         45.29013        40.20401        -0.26110
C         44.02132        39.51106        -0.07558
C         45.30002        41.61370        -0.34732
C         44.02765        42.30035        -0.62309
C         45.30206        44.52645        -0.46503
C         44.03729        43.80991        -0.70305
C         45.24793        45.94144        -0.37416
C         44.02467        46.62989        -0.31884
C         45.19757        48.80693        -0.10161
C         43.99948        48.07559        -0.24786
C         45.20542        50.22100        -0.10528
C         43.95465        50.93839        -0.25209
C         43.90713        52.35473        -0.29790
C         47.66981        23.17783        -0.84819
C         46.45746        22.52804        -1.09886
C         47.70635        24.54413        -0.53701
C         46.47297        25.25546        -0.42486
C         47.71591        27.38337        -0.13842
C         46.47530        26.66793        -0.18677
C         47.71231        28.79789        -0.02513
C         46.46889        29.50142         0.07635
C         47.71332        31.64785         0.00979
C         46.46896        30.93255         0.10828
C         47.70480        33.07535        -0.01931
C         46.45930        33.77518         0.09532
C         47.61898        35.89426        -0.31956
C         46.42034        35.19872        -0.01447
C         47.50774        37.20817        -0.74729
C         46.41166        38.04718        -0.42735
C         47.77539        40.21019        -0.24207
C         46.51965        39.47550        -0.36768
C         47.71419        41.63202        -0.08274
C         46.51445        42.35373        -0.25714
C         47.72178        44.56033        -0.04516
C         46.51310        43.81707        -0.29118
C         47.76557        45.94763        -0.09505
C         46.53536        46.72473        -0.51783
C         47.75041        48.82995         0.05639
C         46.46625        48.04791         0.23057
C         47.67019        50.23189         0.02955
C         46.45178        50.90216        -0.01166
C         50.19558        24.57859        -0.28602
C         48.96630        25.25120        -0.33655
C         50.18879        27.38042        -0.06003
C         48.95682        26.67093        -0.19120
C         50.18035        28.81909        -0.04572
C         48.95672        29.51708        -0.04568
C         50.18659        31.67698        -0.13429
C         48.95071        30.95696        -0.06073
C         50.18265        33.10946        -0.08901
C         48.94447        33.77719        -0.08407
C         50.20828        35.99777         0.17642
C         48.91169        35.24808         0.00398
C         50.32883        37.47042         0.07167
C         49.37507        38.28488        -0.50596
C         50.15061        40.26174         0.72674
C         49.06447        39.59592        -0.09161
C         50.25418        41.69566         0.30820
C         48.98278        42.40095         0.02317
C         50.23169        44.56158         0.40049
C         48.91302        43.82743         0.50901
C         50.22852        45.97020         0.29874
C         48.98387        46.67545         0.11893
C         50.24170        48.78972         0.12459
C         48.97791        48.10907         0.08697
C         51.39246        25.27036        -0.06838
C         52.66120        27.43126         0.43637
C         51.41300        26.66042         0.03834
C         52.63327        28.82536        -0.14720
C         51.43563        29.53637        -0.17444
C         52.64107        31.72250        -0.32167
C         51.42549        30.98356        -0.26077
C         52.67612        33.12568        -0.12918
C         51.44020        33.84341        -0.01976
C         52.70934        35.96862         0.24334
C         51.47403        35.24051         0.13435
C         52.73028        37.36048         0.51666
C         51.44574        38.06815         0.86670
C         52.67059        40.25538         0.71526
C         51.48449        39.55773         0.67100
C         52.67229        41.71853         0.75862
C         51.48020        42.43556         0.66328
C         52.69103        44.57099         0.71248
C         51.44880        43.86201         0.59313
C         52.69751        45.99585         0.55621
C         51.47775        46.68818         0.35793
C         51.42741        48.11778         0.24058
C         55.12120        27.37064        -0.06733
C         53.96944        26.71869         0.20990
C         55.15892        28.79050        -0.34207
C         53.87764        29.46538        -0.55306
C         55.18250        31.70202        -0.44480
C         53.89167        31.03021        -0.63508
C         55.17116        33.13301        -0.21442
C         53.93384        33.83738        -0.09681
C         55.18032        35.97107         0.19802
C         53.94901        35.25450         0.10383
C         55.18210        37.40257         0.39682
C         53.94456        38.10302         0.54510
C         55.15262        40.26690         0.73409
C         53.93461        39.53675         0.69636
C         55.15014        41.70746         0.84003
C         53.91564        42.42816         0.88039
C         55.14980        44.59229         1.28594
C         53.89156        43.84836         0.91962
C         55.14013        46.01395         0.80112
C         53.98918        46.66193         0.52050
C         56.33384        29.51695        -0.43970
C         56.34493        30.93466        -0.48107
C         56.37988        33.86712        -0.11376
C         56.38834        35.23360         0.08394
C         56.38367        38.15934         0.47293
C         56.37152        39.52657         0.64635
C         56.37148        42.47628         0.77244
C         56.38728        43.82748         0.90517
O         53.80179        30.18813        -1.82094
O         40.03165        23.41056         1.03639
O         48.56145        37.72511        -1.49987
O         32.69662        40.96612        -1.67670
O         37.83341        36.57068         1.84049
O         44.03911        42.96833        -1.94766
O         49.88283        42.04868        -1.07869
O         34.31263        38.43460        -1.40616
O         49.37023        35.66976         1.36959
O         42.41880        22.24341         0.57884
O         31.36485        26.49192        -1.37879
H         32.15924        26.04155        -1.73817
O         37.89009        44.55846         1.73164
H         38.69386        45.06717         1.97152
O         38.95483        35.24801        -1.38520
H         39.73526        34.78009        -1.75116
O         42.89153        27.11040         2.02066
H         42.79062        26.15035         2.19821
O         29.41074        35.18709        -1.57732
H         28.73114        34.63830        -2.02150
O         37.40771        27.42130        -1.63687
H         38.14111        27.86567        -2.11043
O         39.10430        30.78021         2.45193
H         39.38619        31.65527         2.79765
O         48.64895        43.69094         1.94975
H         48.52331        44.59211         2.31589
O         30.41238        40.25298         1.81758
H         29.58905        40.68670         2.13138
O         41.55574        35.26261         2.34733
H         41.42749        36.19904         2.61285
O         51.17677        37.84525         2.30590
H         52.02725        37.94527         2.78393
O         30.06926        35.73535         1.97194
H         30.77025        36.23347         2.44440
O         36.91502        26.64148         1.90211
H         36.21437        26.14015         2.36859
O         46.67816        47.03740        -1.93124
H         46.70776        46.19256        -2.42717
O         35.46541        48.76110        -2.60505
H         36.31444        49.20408        -2.81778
O         34.15365        33.76112        -1.77434
H         34.90260        34.33858        -2.03537
O         49.73132        40.25408         2.12455
H         49.95271        39.35885         2.48274
O         32.81779        44.63773         1.65400
H         32.05836        45.20762         1.90082
O         41.40341        43.64547        -2.27469
H         42.27923        43.29886        -2.58016
O         36.35026        30.87586         2.35568
H         37.23003        30.60656         2.72334
O         41.65027        39.81877         2.05949
H         42.51073        39.45821         2.36483
O         43.64790        23.16448        -2.73971
H         44.38342        22.91181        -3.33641
O         52.56398        27.59546         1.90002
H         51.69971        28.02030         2.08827
O         46.37837        47.71356         1.65277
H         46.32395        48.55526         2.15222
O         27.97037        33.52044         2.32084
H         28.47221        34.36738         2.38019
O         55.17159        44.67033         2.76700
H         55.14384        43.74813         3.10062
O         28.73535        30.88297        -1.25192
H         29.43329        30.34760        -1.68669
O         39.20756        23.09280        -2.45851
H         38.47199        22.79103        -3.03205
O         25.87909        28.94017         2.25020
H         26.37158        29.13730         3.07285
O         35.07564        37.45536         2.08390
H         35.90059        37.10888         2.49921
H         27.06834        26.84589         1.50436
H         25.99516        29.28764         0.22903
H         25.95369        31.51338         1.74901
H         25.71959        33.19202         0.30400
H         25.66706        35.55724        -0.28735
H         25.63696        37.53911         0.02089
H         25.65161        39.95913        -0.07600
H         25.66510        41.86290        -0.03030
H         25.68014        44.30883        -0.16648
H         26.93119        46.46214        -0.29248
H         29.13095        25.56804         1.01278
H         29.05789        47.69340        -0.42727
H         32.88864        23.44451         0.80820
H         30.74291        24.58364         0.77019
H         32.83620        49.67531        -1.43013
H         30.69918        48.52158        -1.10065
H         34.37727        22.54140        -0.22789
H         34.38524        50.69718        -0.59411
H         36.45437        21.38736        -0.82215
H         36.46356        51.91165        -0.26921
H         40.21036        19.31314        -1.80685
H         38.08102        20.47521        -1.46586
H         40.23670        54.11667        -0.59637
H         38.10769        52.89470        -0.67059
H         42.71449        19.34006        -1.92893
H         42.69614        54.13143        -0.43801
H         44.81985        20.56881        -1.88267
H         44.83589        52.93816        -0.24791
H         48.60013        22.60250        -0.94357
H         46.48207        21.46881        -1.38889
H         48.58787        50.83652         0.00927
H         46.47299        51.99962        -0.02901
H         50.23576        23.48531        -0.38119
H         50.26381        49.88634         0.06732
H         52.32329        24.69278         0.01121
H         52.35968        48.69732         0.27455
H         56.07129        26.81561        -0.10626
H         54.01008        25.64130         0.42480
H         56.10140        46.54744         0.75023
H         54.03402        47.71753         0.21638
H         57.29650        28.99131        -0.35623
H         57.32531        31.42755        -0.42501
H         57.34216        33.34562        -0.20293
H         57.35665        35.74692         0.15062
H         57.35548        37.65417         0.39092
H         57.33452        40.05117         0.70145
H         57.31892        41.95707         0.56988
H         57.34029        44.37455         0.84680
