         349
 CSIRO Nanostructure Databank - Neutral Graphene Oxide Data Set
C          1.07618         1.91899         0.01368
C          1.03686         3.31906         0.13101
C          2.28471         1.25031        -0.06833
C          2.22556         4.06752         0.21363
C          1.12354         6.29721        -0.38653
C          1.15921         7.66299        -0.51253
C          2.17462         5.55691         0.33650
C          2.30963         8.44132        -0.18602
C          1.10640        10.62253        -0.43931
C          1.04892        11.97743        -0.49994
C          2.34187         9.85975        -0.30810
C          2.26258        12.80609        -0.57886
C          1.17033        15.03382         0.07288
C          1.26439        16.45693         0.26905
C          2.25475        14.27142        -0.29463
C          2.38618        17.17606        -0.13020
C          2.57560        18.60950        -0.00194
C          3.51601         1.97757        -0.05558
C          3.46365         3.40696         0.11093
C          4.74852         1.32622        -0.20101
C          4.71893         4.09543         0.49489
C          3.42605         6.31658         0.68357
C          3.60103         7.66936         0.00343
C          4.68870         5.52781         0.95600
C          4.73220         8.48590         0.60406
C          3.56318        10.57353        -0.19845
C          3.57677        12.03642        -0.43287
C          4.79139         9.91765         0.18941
C          4.74753        12.77286         0.20025
C          3.54805        14.99971        -0.40494
C          3.46170        16.44823        -0.75803
C          4.83490        14.25953        -0.18013
C          4.50062        17.14335        -1.31790
C          3.74961        19.22718        -0.33927
C          4.85419        18.50442        -0.96429
C          5.95709         2.13228        -0.55757
C          6.02264         3.45418         0.18277
C          7.26227         1.39674        -0.59900
C          7.19314         4.12739         0.30673
C          6.04287         6.24562         1.19276
C          5.99210         7.76695         1.00260
C          7.16560         5.65115         0.33936
C          7.29754         8.46926         0.80869
C          5.99665        10.58051         0.26782
C          6.04566        12.02821        -0.03785
C          7.24467         9.97270         0.86779
C          7.32735        12.75895         0.16047
C          6.18822        14.80909        -0.51216
C          6.38168        15.99314        -1.21639
C          7.34923        14.23122         0.05734
C          7.49105        16.82860        -1.03966
C          6.15181        18.98293        -1.03360
C          7.38957        18.24518        -1.59770
C          8.46160         2.03390        -0.39605
C          8.52778         3.39879         0.26566
C          9.71040         1.38091        -0.61688
C          9.61408         4.29378        -0.39306
C          8.48482         6.30535         0.72189
C          8.47445         7.79701         0.71727
C          9.76516         5.62408         0.36753
C          9.79920         8.41486         0.34833
C          8.53478        10.66262         0.47151
C          8.56119        12.02703         0.44967
C          9.81898         9.93624         0.12299
C          9.75744        12.79605         0.96735
C          8.54821        14.95788         0.10956
C          8.57150        16.31302        -0.31326
C          9.79612        14.36702         0.74214
C          9.82545        17.12238        -0.10781
C          8.69184        18.98937        -1.39984
C          9.83173        18.43061        -0.87998
C         10.94268         2.05706        -0.52005
C         10.93829         3.55362        -0.54112
C         12.16150         1.40324        -0.70321
C         12.21551         4.33124        -0.44818
C         10.91128         6.57622         0.04024
C         11.04293         7.78943         0.95260
C         12.24305         5.89676        -0.44082
C         12.20553         8.51763         0.94875
C         11.03779        10.66930         0.69605
C         11.05279        12.08230         0.68488
C         12.23022         9.97643         0.96111
C         12.27359        12.78699         0.64667
C         11.05850        14.89272         0.11364
C         11.02352        16.24621        -0.56055
C         12.26817        14.21595         0.27879
C         12.32216        17.00506        -0.46676
C         11.10352        19.09089        -0.95983
C         12.32442        18.42521        -0.72880
C         13.45089         2.00831        -0.35696
C         13.45844         3.56694        -0.01246
C         14.68080         1.37288        -0.85125
C         14.73145         4.33101         0.06083
C         13.39753         6.36021         0.47319
C         13.45648         7.85920         0.51558
C         14.72577         5.73781         0.11621
C         14.75166         8.58981         0.58212
C         13.46147        10.67807         1.05494
C         13.48090        12.05806         0.79877
C         14.71300         9.87360         1.38078
C         14.77025        12.74230         0.56041
C         13.49066        14.89512        -0.03016
C         13.51089        16.29205        -0.30600
C         14.76716        14.15759         0.06836
C         14.78925        16.99472        -0.60403
C         13.57041        19.13414        -0.73502
C         14.80313        18.47223        -0.63850
C         15.94639         1.64050        -0.34444
C         15.96240         3.69616         0.30442
C         17.24594         1.36200        -0.82497
C         17.20159         4.32659         0.02523
C         15.96150         6.44200         0.17130
C         16.02255         7.84873         0.47635
C         17.17559         5.73391        -0.04518
C         17.24862         8.52968         0.61448
C         16.03386        10.63430         1.31597
C         16.02368        12.13251         1.10949
C         17.28861         9.92466         0.98504
C         17.29797        12.79658         0.81718
C         16.00861        14.96582         0.29575
C         16.09906        16.29839        -0.37448
C         17.27295        14.24831         0.64627
C         17.36992        17.06144        -0.28682
C         16.04717        19.13662        -0.53642
C         17.31377        18.49518        -0.40248
C         18.40591         2.13984        -0.47667
C         18.41118         3.54958        -0.16649
C         19.66263         1.48005        -0.59349
C         19.65308         4.28601        -0.21986
C         18.40442         6.50662        -0.41644
C         18.48014         7.86909         0.26406
C         19.65951         5.68409        -0.26108
C         19.68614         8.55443         0.34362
C         18.49435        10.64416         0.89370
C         18.49989        12.09901         0.86165
C         19.73515         9.95281         0.67222
C         19.74715        12.82052         0.76342
C         18.53830        14.94128         0.41743
C         18.54449        16.30450        -0.03216
C         19.73113        14.23322         0.61831
C         19.83749        16.83378        -0.34522
C         18.47054        19.33942        -0.15832
C         19.77386        18.93510        -0.42713
C         20.88863         2.12796        -0.38484
C         20.91538         3.55604        -0.25521
C         22.13074         1.41767        -0.38224
C         22.15210         4.21270        -0.21170
C         20.91466         6.42874        -0.45108
C         20.93961         7.90329        -0.10887
C         22.20225         5.67206        -0.43139
C         22.22890         8.56169         0.20466
C         20.97160        10.65556         0.67968
C         20.99742        12.09612         0.76461
C         22.21812         9.95387         0.51216
C         22.22301        12.78598         0.71309
C         21.00261        15.00832         0.85867
C         21.02828        16.37618         0.19912
C         22.23257        14.25381         0.37249
C         22.23201        17.14876         0.18916
C         21.04930        19.39096         0.03919
C         22.19458        18.59239         0.11950
C         23.33920         2.06708        -0.22400
C         23.38582         3.49806        -0.12984
C         24.60559         1.25360        -0.10616
C         24.63329         4.18473         0.01771
C         23.47353         6.40827        -0.17955
C         23.43672         7.86244         0.10483
C         24.64180         5.64896         0.41063
C         24.68451         8.53789         0.20490
C         23.46096        10.64712         0.56368
C         23.47891        12.09986         0.69837
C         24.66407         9.94192         0.35776
C         24.68450        12.80455         0.80053
C         23.44035        15.02976         0.84513
C         23.47161        16.47106         0.51381
C         24.73343        14.26666         1.01603
C         24.71464        17.11745         0.49877
C         23.46736        19.34229         0.47946
C         24.74356        18.54841         0.33196
C         25.87879         2.06140        -0.21661
C         25.85733         3.49229        -0.06398
C         27.07361         1.39481        -0.37425
C         27.11504         4.20559        -0.02680
C         25.93980         6.37828         0.13359
C         25.93378         7.80517         0.08116
C         27.13288         5.65910         0.03768
C         27.17158         8.50012        -0.05688
C         25.91352        10.70666         0.17401
C         25.96226        12.07261         0.77130
C         27.19440         9.97951        -0.06210
C         27.28337        12.77615         0.88958
C         25.99304        14.99872         0.82233
C         25.97142        16.37773         0.59719
C         27.30292        14.29905         1.14134
C         27.21229        17.08120         0.36367
C         25.93570        19.19931         0.15846
C         27.18429        18.48256         0.10753
C         28.32453         2.08892        -0.35158
C         28.31718         3.50340        -0.14028
C         29.54160         1.40988        -0.56044
C         29.62479         4.21345         0.09905
C         28.38657         6.36249        -0.16027
C         28.38307         7.80929        -0.19290
C         29.58039         5.66428        -0.28728
C         29.64510         8.52900        -0.26460
C         28.47989        10.69095         0.13956
C         28.51344        12.07010         0.40853
C         29.68085         9.95569        -0.07427
C         29.74703        12.77505         0.33302
C         28.50574        14.99273         0.55556
C         28.46781        16.36818         0.30800
C         29.77464        14.24144         0.54469
C         29.67468        17.09166        -0.05994
C         28.36208        19.17060        -0.21228
C         29.60277        18.49463        -0.32366
C         30.76411         2.10900        -0.63684
C         30.82692         3.47825        -0.43063
C         32.05516         4.22189        -0.54388
C         30.79504         6.35331        -0.85403
C         30.84702         7.82605        -0.48018
C         32.06732         5.57354        -0.64067
C         32.06553         8.53638        -0.50623
C         30.92333        10.65557        -0.11903
C         30.93418        12.09019         0.00334
C         32.11005         9.90710        -0.32130
C         32.11621        12.83980        -0.36343
C         31.04888        14.99823         0.16160
C         30.93064        16.44166        -0.17505
C         32.14840        14.19519        -0.39045
C         32.06125        17.17150        -0.56534
C         30.77068        19.20709        -0.70312
C         31.98108        18.54796        -0.82773
O          4.26085        15.02871         0.94617
O          5.38592        16.41101        -2.11673
O         20.85640         7.44437        -1.52062
O          3.13489        12.48564        -1.73713
O         15.96710         2.41924         0.84266
O          2.40658         6.16316         1.68551
O         30.74128        14.69370         1.55947
O          4.54520         4.47647         1.93332
O         10.23397         7.57393        -0.90670
O         13.33839         2.57821         1.00567
O         16.04355        11.56480         2.46023
O         23.91162        14.71533         2.17705
O          6.80438        12.31455        -1.23354
O         16.42072        14.97883         1.68866
O         15.50952        16.32912        -1.71533
O         26.70402        12.08118         2.06014
O         26.43726        10.59937        -1.19356
O          5.07464         8.33010         2.02064
O         19.87936        17.83733        -1.31563
O         13.99007         8.54843        -0.66869
O         14.95143        13.05119        -0.88057
O          9.30731         5.66646         1.75208
O          9.60387        12.60471         2.36951
O         23.11871         6.02778        -1.53759
O         11.68441         3.93928        -1.76703
O         14.58291         9.41356         2.75755
H         14.79476        10.18420         3.33251
O          6.88896         6.06397        -1.02297
H          7.62085         5.71793        -1.59192
O         27.44836        14.47796         2.58610
H         26.95501        13.73374         3.00733
O          7.08603        10.27992         2.29724
H          6.28846         9.78879         2.60974
O          9.95424        10.13425        -1.31599
H         10.51740         9.40567        -1.66318
O         13.04272         5.88701         1.79570
H         13.66247         6.26777         2.45283
O          9.97553        17.49469         1.26953
H          9.90544        16.67044         1.82024
O          6.42912         6.02931         2.55496
H          5.72412         6.39423         3.13103
O         10.79313        16.01302        -1.98653
H         11.55424        15.50554        -2.34091
O         24.60459         0.17213        -1.04747
H         24.59272         0.55304        -1.94933
O         18.26618         6.79355        -1.85242
H         19.13136         7.18149        -2.13996
O          7.21744        18.18219        -3.03740
H          6.47100        17.56212        -3.21114
O          5.71833         2.56759        -1.96176
H          6.46880         3.14680        -2.21848
O          4.06021         7.31537        -1.34204
H          4.15242         8.13944        -1.86613
O         30.59742         6.34473        -2.32119
H         29.78462         6.86160        -2.50958
O         23.37015        19.78080         1.85346
H         23.40513        18.98691         2.42689
O         22.27261        14.32188        -1.08085
H         21.52851        13.79184        -1.43675
O         29.80310         4.20843         1.58089
H         29.84503         3.26787         1.85795
O         12.55602         6.33644        -1.75539
H         12.06381         5.77565        -2.39393
O         21.11849        15.16300         2.29338
H         20.25087        15.44761         2.64809
O          4.52897        12.65720         1.62681
H          4.27282        13.55669         1.95201
O          9.91294        14.94559         2.07643
H          9.76943        14.14922         2.69767
O          9.13926         4.61499        -1.72614
H          9.93337         4.67627        -2.30841
O          8.91716         3.09735         1.62056
H          8.88872         3.93629         2.14315
O         24.43220         5.68981         1.86126
H         25.22173         5.29721         2.29038
H          0.13388         1.35418        -0.01097
H          0.06513         3.82596         0.20944
H          2.31140         0.15628        -0.17150
H          0.25474         5.74237        -0.76946
H          0.28366         8.16614        -0.94830
H          0.15847        10.06810        -0.39575
H          0.06993        12.47905        -0.47876
H          0.19219        14.55713         0.23830
H          0.39555        16.98404         0.68870
H          1.77074        19.20024         0.46099
H          4.78747         0.22788        -0.25160
H          3.87965        20.29925        -0.12859
H          7.25995         0.37921        -1.02168
H          6.32151        20.00835        -0.66367
H          9.71477         0.30695        -0.85836
H          8.77588        19.95610        -1.92400
H         12.15580         0.33637        -0.97386
H         11.13180        20.14867        -1.26756
H         14.58310         0.79561        -1.78146
H         13.55128        20.23192        -0.80781
H         17.40657         0.48170        -1.46576
H         16.03786        20.23746        -0.55458
H         19.66727         0.40004        -0.80537
H         18.29218        20.32451         0.29971
H         22.11951         0.32267        -0.48701
H         21.14786        20.44247         0.35380
H         24.60361         0.77222         0.91432
H         23.53627        20.27321        -0.13905
H         27.06871         0.30278        -0.50699
H         25.95473        20.29237         0.03513
H         29.52579         0.32531        -0.73775
H         28.31996        20.25153        -0.41154
H         31.67685         1.56225        -0.91726
H         33.00349         3.66129        -0.56159
H         33.03183         6.08954        -0.74404
H         33.00949         8.00279        -0.67803
H         33.08692        10.40775        -0.33067
H         32.98186        12.29105        -0.75823
H         33.01539        14.70379        -0.83492
H         33.03808        16.67518        -0.64069
H         30.69928        20.28671        -0.89703
H         32.88589        19.09883        -1.11881
