         294
 CSIRO Nanostructure Databank - Neutral Graphene Oxide Data Set
C          1.34398         2.04394        -1.15074
C          1.25218         3.41321        -0.85608
C          2.57511         1.42153        -1.26399
C          2.40560         4.19821        -0.64133
C          1.08895         6.23706        -0.03942
C          1.02679         7.53243         0.43795
C          2.33296         5.60025        -0.27067
C          2.21801         8.26553         0.64620
C          1.24898        10.87735        -1.79107
C          1.27407        12.24849        -1.67596
C          2.38073        10.08827        -1.47498
C          2.35432        12.93104        -0.96346
C          1.22125        15.22836        -1.01874
C          1.22602        16.55672        -0.75452
C          2.50847        14.44497        -1.12615
C          2.43271        17.27455        -0.40127
C          2.51966        18.64993        -0.46537
C          3.78245         2.17177        -1.10982
C          3.68415         3.57856        -0.75243
C          5.01298         1.57888        -1.37192
C          4.86117         4.30940        -0.44622
C          3.53549         6.34715        -0.07472
C          3.47014         7.72383         0.29146
C          4.80641         5.66845        -0.11198
C          4.72080         8.56696         0.46628
C          3.65642        10.65998        -1.00177
C          3.61711        12.13148        -0.64485
C          4.83555         9.86884        -0.41035
C          4.87323        12.86102        -0.29865
C          3.57865        14.99792        -0.20043
C          3.57792        16.47484         0.10230
C          4.84379        14.22182        -0.11553
C          4.89681        17.18318         0.45768
C          3.73457        19.33693        -0.19380
C          4.90211        18.66565         0.13854
C          6.26920         2.40016        -1.39241
C          6.14555         3.51394        -0.33845
C          7.49361         1.58876        -1.04471
C          7.38993         4.40517        -0.33073
C          6.01085         6.40105         0.27290
C          6.00303         7.75774         0.41334
C          7.18152         5.54240         0.77350
C          7.26741         8.51623         0.78551
C          6.01995        10.68815         0.00536
C          6.05810        12.05803        -0.02232
C          7.28843         9.90416         0.16514
C          7.29297        12.71372         0.62396
C          6.06017        15.00622         0.21792
C          6.04291        16.45332        -0.30946
C          7.30776        14.26094         0.51809
C          7.43002        17.22716        -0.26717
C          6.14373        19.34016         0.28759
C          7.35810        18.65052         0.27924
C          8.60260         2.15760        -0.40829
C          8.60442         3.57230        -0.07652
C          9.82248         1.41366        -0.30665
C          9.76842         4.20686         0.38686
C          8.51659         6.33719         1.04843
C          8.55852         7.72557         0.38555
C          9.77338         5.56788         0.71671
C          9.81533         8.50800         0.77787
C          8.61378        10.59200         0.17565
C          8.59724        12.10856        -0.00012
C          9.80974         9.86270         0.71615
C          9.79565        12.78886         0.64833
C          8.59251        14.99821         0.12589
C          8.55330        16.48478         0.53247
C          9.80092        14.27468         0.69812
C          9.92371        17.16124         0.21191
C          8.59345        19.31346         0.48516
C          9.84134        18.66135         0.44296
C         11.05043         2.01532         0.05485
C         10.99631         3.37287         0.72598
C         12.26765         1.36914        -0.11009
C         12.21704         4.22412         0.35790
C         11.00629         6.27954         1.14360
C         11.16531         7.77695         0.85887
C         12.28418         5.51710         1.17062
C         12.23382         8.42613         1.79837
C         10.94795        10.68054         1.31210
C         11.09030        12.00119         0.52598
C         12.30521         9.94436         1.52837
C         12.33568        12.82093         0.98462
C         11.10195        15.01237         0.90070
C         11.09139        16.49766         0.97091
C         12.33205        14.26411         0.42034
C         12.38078        17.31863         1.10665
C         11.06613        19.34304         0.37693
C         12.30755        18.65070         0.36609
C         13.57642         2.12466        -0.25058
C         13.53818         3.47950         0.47236
C         14.84964         1.40072         0.16057
C         14.55601         4.47406        -0.05677
C         13.65687         6.15836         1.50447
C         13.62469         7.71478         1.66235
C         14.73925         5.70242         0.54787
C         14.92589         8.45381         1.41915
C         13.61459        10.67397         1.32973
C         13.59897        12.01346         0.57662
C         14.99465         9.99819         1.49011
C         14.89236        12.80118         0.64520
C         13.62885        14.98921         0.65473
C         13.73186        16.49355         0.90761
C         14.83765        14.27353         0.48228
C         14.64099        17.11299        -0.15780
C         13.46622        19.29466        -0.06060
C         14.68911        18.59747        -0.24789
C         15.97583         1.98987         0.63541
C         16.27774         3.43253         1.10311
C         17.25643         1.28664         0.84126
C         17.22380         4.20864         0.20830
C         16.02731         6.40004         0.47321
C         16.11735         7.73128         0.82887
C         17.21510         5.58728         0.05226
C         17.44946         8.42521         0.79866
C         16.09255        10.57378         0.57143
C         16.06385        12.10820         0.55794
C         17.49453         9.96932         0.95935
C         17.31918        12.85898         0.29681
C         15.99030        14.96263         0.04391
C         15.87361        16.33189        -0.48396
C         17.19528        14.19105        -0.41288
C         17.12384        17.03926        -0.99517
C         15.88484        19.23447        -0.54404
C         17.11667        18.53471        -0.72932
C         18.36644         1.95248         0.40458
C         18.10196         3.14323        -0.49489
C         19.73766         1.60792         0.71173
C         19.33462         3.74050        -1.05591
C         18.38147         6.36360        -0.45586
C         18.63220         7.69613         0.18248
C         19.25058         5.92259        -1.40548
C         19.96584         8.42658        -0.14962
C         18.54199        10.62414         0.06220
C         18.59993        12.12721         0.11533
C         19.75133         9.91070        -0.41875
C         19.71456        12.80777        -0.67212
C         18.47905        14.99250        -0.40994
C         18.42319        16.37765        -0.57144
C         19.72416        14.31104        -0.45956
C         19.63370        17.12446        -0.64497
C         18.31249        19.22343        -0.73399
C         19.58621        18.55590        -0.75439
C         20.78059         2.38754         0.30677
C         20.59833         3.52935        -0.58251
C         21.74984         4.35016        -0.96003
C         20.56181         6.49507        -1.84917
C         20.75603         7.89803        -1.34335
C         21.74070         5.60642        -1.45297
C         21.69817         8.67667        -1.92634
C         20.97594        10.69104        -0.79363
C         21.04056        12.12231        -0.30129
C         21.91835        10.05578        -1.52658
C         22.22915        12.93223        -0.75304
C         20.92398        15.01926        -0.59773
C         20.89673        16.45631        -0.61227
C         22.16404        14.27788        -0.81558
C         22.07977        17.24314        -0.66022
C         20.78013        19.28610        -0.79865
C         22.01740        18.62542        -0.74763
O         18.59755        10.14047        -1.30944
O         18.30529        12.78319         1.37422
O         11.70138         7.83304        -0.43521
O          6.53176        14.86181         1.59693
O         19.02336         4.68188        -2.05590
O         16.13258         3.74125         2.27371
O         14.51561         8.01754         2.77476
O          9.50455        13.46139         1.88359
O         18.42229         7.70681         1.63173
O         14.71050        16.42918        -1.42867
O          4.69758         9.99751        -1.85480
O          3.13876        15.48988         1.10593
O          8.09807         9.96017        -1.07143
O         11.47872         5.65499         2.39613
O         12.96856        10.63694         2.63188
O         10.97961        15.70251         2.19178
O          7.17496        12.31684         1.93653
O          6.76194         5.00034         1.97104
O         10.29978        16.96169        -1.13224
O          2.58434        12.37212         0.36752
O         13.71851         3.14087         1.85149
H         13.95330         3.94969         2.38326
O         13.55769        11.64980        -0.83351
H         13.47117        12.47852        -1.35646
O         16.92411        13.87801        -1.82835
H         16.80331        14.73922        -2.29831
O         14.51847        16.61663         2.11712
H         13.95896        17.11723         2.76630
O         15.84381        10.11608        -0.76946
H         15.02468        10.56754        -1.09940
O         10.93178         3.07166         2.12937
H         10.98893         3.92417         2.62592
O         12.37284        17.77216         2.49084
H         11.84507        17.11200         3.00334
O         21.09266        12.06745         1.14771
H         21.84025        11.49218         1.41121
O         12.16143        14.19025        -1.03688
H         11.87110        15.07693        -1.36232
O          6.10098         2.78127         0.90174
H          6.23214         3.46340         1.62887
O          2.39925         8.85445        -1.97731
H          3.32122         8.50532        -1.95487
O          7.25952         8.75048         2.21510
H          7.64223         7.93878         2.65246
O         19.50083        12.61041        -2.08377
H         18.57594        12.88705        -2.29217
O         12.05480         4.62375        -1.02303
H         12.44437         3.92071        -1.59504
O          8.36080        16.67733         1.92386
H          7.63958        16.07541         2.23864
O         20.82509         8.28191         1.00214
H         20.23003         8.22154         1.78875
O          2.10174         9.52527         1.13278
H          2.96443         9.80232         1.53298
O          8.60670         6.52080         2.48175
H          7.99977         5.79636         2.82999
O         13.61955         2.29804        -1.70560
H         14.55353         2.21334        -1.99879
O         17.09959        16.85922        -2.45082
H         17.84533        17.37334        -2.82708
O         13.98876         5.62982         2.81209
H         13.26935         5.89626         3.42611
O          3.02195        14.60419        -2.48431
H          3.56492        15.42343        -2.52025
O         10.48581        11.02979         2.63781
H         10.52787        10.22228         3.19651
O         11.15698        11.63043        -0.85714
H         11.26045        12.45060        -1.39121
O          8.57636         7.45653        -1.02820
H          8.79878         8.29791        -1.49560
O         17.29322         2.66967        -1.61185
H         17.44266         3.30267        -2.34915
O          7.81738        17.41615        -1.63708
H          8.80317        17.20122        -1.72781
O         17.91615        10.27866         2.28216
H         17.14835        10.17325         2.89495
O         12.32057        13.03201         2.39460
H         11.65282        12.43588         2.81766
O         11.79504         8.27594         3.15707
H         12.53479         8.58064         3.72845
O         15.40975        10.35119         2.82620
H         14.73727         9.97440         3.43949
O         20.56418         6.53442        -3.30033
H         20.25655         5.65329        -3.60499
O          8.66718        15.00404        -1.30928
H          8.76024        14.07720        -1.63986
O          4.62931         9.14817         1.80354
H          5.53558         9.14035         2.22207
O          7.48949         5.07373        -1.60697
H          8.04333         5.89797        -1.52678
O         15.13518         4.20109        -1.25866
H         15.62979         4.98962        -1.56428
O          5.11514        17.08586         1.87125
H          4.64573        16.28020         2.19039
O          8.61696        12.37909        -1.41458
H          8.36633        11.53471        -1.86934
O          5.59554        16.36809        -1.67771
H          6.37683        16.66796        -2.22049
O          6.42954         2.90219        -2.74384
H          6.95450         3.74001        -2.69274
H          0.42188         1.46391        -1.29557
H          0.25290         3.86281        -0.78252
H          2.63814         0.35248        -1.51266
H          0.15122         5.68679        -0.19242
H          0.06223         8.00048         0.67181
H          0.41541        10.38130        -2.30584
H          0.47769        12.84253        -2.14449
H          0.27649        14.73239        -1.28518
H          0.28740        17.12902        -0.81526
H          1.64605        19.22948        -0.79766
H          5.05398         0.51323        -1.64877
H          3.76611        20.42724        -0.33764
H          7.57798         0.56225        -1.43685
H          6.14590        20.44027         0.36598
H          9.83009         0.38260        -0.69583
H          8.57167        20.39093         0.72263
H         12.25978         0.33887        -0.50647
H         11.07402        20.43079         0.19244
H         14.89730         0.32737        -0.09494
H         13.41345        20.35505        -0.35429
H         17.31484         0.35077         1.41828
H         15.91347        20.33560        -0.54157
H         19.92077         0.73259         1.35139
H         18.30206        20.32087        -0.64308
H         21.80536         2.13979         0.61856
H         22.73334         3.89939        -0.74592
H         22.71816         6.07297        -1.65716
H         22.30276         8.26806        -2.74906
H         22.82280        10.57109        -1.88041
H         23.19459        12.42700        -0.91066
H         23.07120        14.84406        -1.07217
H         23.06364        16.75751        -0.61507
H         20.74374        20.38271        -0.86683
H         22.94605        19.21218        -0.77563
