         270
 CSIRO Nanostructure Databank - Neutral Graphene Oxide Data Set
C        -11.17232         0.43254         0.36244
C         -9.86750         1.17017         0.20479
C         -8.75121         0.47212         0.99142
C         -7.48188         1.28667         1.25985
C         -6.19356         0.49506         1.07814
C         -4.92020         1.24946         1.27447
C         -3.62857         0.54107         1.03681
C         -2.42861         1.26190         0.84200
C         -1.20167         0.56896         0.62311
C          0.05402         1.30232         0.52523
C          1.34616         0.57711         0.64247
C          2.68357         1.29441         0.54557
C          3.94900         0.55972         0.04210
C          5.05633         1.47113        -0.59045
C          6.39485         0.73672        -0.30497
C          7.21525         1.50131         0.76684
C          8.44249         0.68643         1.14974
C          9.80465         1.30865         1.19473
C         10.96427         0.38449         1.23462
C         -9.92311         2.65684         0.48218
C         -8.78426         3.37392         0.56905
C         -7.48320         2.64180         0.56373
C         -6.21348         3.40451         0.59239
C         -4.96147         2.76233         1.12800
C         -3.69357         3.53762         0.87757
C         -2.41897         2.74134         0.78243
C         -1.24071         3.35314         0.09860
C          0.05171         2.67504         0.30682
C          1.23794         3.44263         0.27285
C          2.57256         2.78418         0.34828
C          3.65316         3.52771        -0.38928
C          5.02103         2.94686        -0.15718
C          6.29309         3.76483         0.00673
C          7.52142         2.92980         0.29238
C          8.83517         3.45556         0.37370
C          9.94422         2.69012         0.73687
C         -8.77525         4.88287         0.77770
C         -7.52619         5.57650         0.25522
C         -6.19941         4.93263         0.62686
C         -4.95837         5.45749        -0.09769
C         -3.76846         4.85594         0.17211
C         -2.47534         5.63357         0.06568
C         -1.25197         4.80375        -0.23501
C          0.01895         5.55645        -0.14460
C          1.18066         4.85335         0.18614
C          2.45157         5.58568         0.47624
C          3.52487         5.00094        -0.44187
C          4.79169         5.74850        -0.59267
C          6.18225         5.15150        -0.71907
C          8.09231         5.74498         0.59525
C          8.95721         4.88157        -0.04247
C         -7.54818         6.85811        -0.17815
C         -6.33121         7.51849        -0.73203
C         -5.04417         6.76310        -0.80510
C         -3.78432         7.59270        -1.13310
C         -2.49234         6.80958        -0.89821
C         -1.21242         7.58208        -0.93752
C          0.01977         6.97477        -0.37048
C          1.17692         7.73468        -0.22676
C          2.29171         7.12988         0.60746
C          3.62423         7.85018         0.43341
C          4.81988         7.10014        -0.02491
C          6.20336         7.63224         0.25805
C          7.14626         6.50744        -0.27491
C         -6.21456         9.00683        -0.78264
C         -5.04647         9.65009        -0.59825
C         -3.74905         8.90483        -0.32698
C         -2.47077         9.68068        -0.65763
C         -1.29730         9.07060        -0.94467
C          0.00777         9.81125        -1.19665
C          1.24165         9.13958        -0.57415
C          2.40238         9.87355        -0.44718
C          3.69154         9.26583        -0.03493
C          5.02662         9.70353        -0.56728
C          6.17774         9.00282        -0.43180
C        -11.21404        -0.90386         0.44591
C        -10.00375        -1.80411         0.58530
C         -8.72251        -1.02379         0.92125
C         -7.39439        -1.66980         0.69607
C         -6.18411        -0.87215         0.97907
C         -4.89956        -1.57654         1.27590
C         -3.63130        -0.86609         0.93106
C         -2.45411        -1.56562         0.51131
C         -1.23707        -0.83595         0.43940
C         -0.01528        -1.47697        -0.11169
C          1.29831        -0.85191         0.22954
C          2.60081        -1.53763        -0.08779
C          3.66197        -0.72564        -0.80000
C          5.08813        -1.44136        -0.91363
C          5.91202        -0.68707         0.20688
C          6.97819        -1.49608         1.04825
C          8.39375        -0.82765         0.94711
C          9.44716        -1.50153         1.87285
C         10.81076        -0.90592         1.56759
C         -9.78116        -2.72686        -0.61688
C         -8.60304        -3.60891        -0.27666
C         -7.36133        -2.87612         0.03271
C         -6.15405        -3.59098        -0.46450
C         -4.81194        -2.93912        -0.69981
C         -3.60281        -3.69469        -0.22572
C         -2.45704        -2.98589         0.16824
C         -1.13059        -3.71889         0.28035
C         -0.02164        -2.93305        -0.39904
C          1.27847        -3.65565        -0.57742
C          2.57306        -3.00353        -0.22263
C          3.79655        -3.77116        -0.52727
C          5.10122        -3.06369        -0.89308
C          6.23454        -3.67722        -0.08905
C          7.13195        -2.97715         0.65322
C          8.35060        -3.67462         1.14122
C          9.43379        -2.98495         1.64393
C         -8.64141        -4.96429        -0.24429
C         -7.42134        -5.75134         0.19785
C         -6.17861        -5.07983        -0.36334
C         -4.89663        -5.82325        -0.26225
C         -3.67209        -5.12095        -0.18512
C         -2.43410        -5.88161         0.23393
C         -1.22378        -5.13235        -0.28370
C         -0.04167        -5.83326        -0.88175
C          1.28519        -5.12221        -0.82336
C          2.44809        -5.83597        -0.20038
C          3.74699        -5.10476        -0.24690
C          4.97958        -5.84846         0.09390
C          6.32240        -5.20842        -0.28750
C          7.41845        -5.88698         0.51759
C          8.47239        -5.09190         0.99500
C         -7.41224        -7.22707        -0.14886
C         -6.22751        -7.92099        -0.28980
C         -4.95885        -7.22460        -0.24048
C         -3.71663        -7.98145        -0.50145
C         -2.40827        -7.36900        -0.13047
C         -1.17350        -8.10295        -0.55551
C         -0.02490        -7.34428        -1.19405
C          1.39648        -8.00180        -1.03464
C          2.35819        -7.31950        -0.04205
C          3.62455        -8.07860         0.25259
C          4.90797        -7.29984         0.41153
C          6.17713        -8.14071         0.56349
C          7.41128        -7.26915         0.64686
C         -6.19950        -9.37829        -0.44255
C         -5.07108       -10.09540        -0.66535
C         -3.75762        -9.43973        -0.86341
C         -2.46543       -10.18598        -0.93639
C         -1.27700        -9.53546        -0.97304
C          0.03384       -10.23130        -1.33155
C          1.29959        -9.51884        -0.86254
C          2.44304       -10.19586        -0.61830
C          3.69789        -9.51299        -0.17389
C          5.02973        -9.98832        -0.63627
C          6.16959        -9.31698        -0.38767
O          1.29877        -0.47427         1.65055
O         -4.99079         2.15636         2.43127
O         -1.03051        -5.15189        -1.71387
O         -7.52541         1.64458         2.66158
H         -7.81973         0.84586         3.15643
O         -1.66887         6.76757        -2.08685
O          2.97637         5.14082         1.81209
O          6.62119        -5.52943        -1.61959
O          4.70316         6.89197        -1.50134
O         -1.54301        -8.03355         0.87065
O          3.18779         4.17530        -1.60095
O          2.91164        -2.35993         1.08322
O          5.31788        -3.43426        -2.27126
H          5.82444        -4.31785        -2.28943
O          5.39347         3.51195         1.14231
O          4.88084        -6.30269         1.49984
O          6.13543        -8.69804         1.90782
H          5.60713        -8.08086         2.46163
O          8.93844         1.14007         2.43084
O         -6.07203         5.35607         1.96344
O          6.46636         4.86808        -2.07391
H          6.03414         5.55969        -2.62215
O          5.62605        -1.04329        -2.16064
H          5.63794        -1.85423        -2.74016
O         -9.02626        -0.32502         2.18944
O         -9.47132         1.03745        -1.19262
H         -9.52634         0.08475        -1.44800
O         -3.77804        -8.40730        -1.91930
O         -6.67618         2.78093        -0.64943
O          2.07337        -7.84615        -2.26445
O          1.92602        -6.45986         1.04624
O          4.77537        -0.17831         1.11514
H          5.20888         0.48983         1.77215
O          2.96563         2.21135         1.63444
O         -3.71729         8.55662         1.08510
H         -3.89229         9.36333         1.61283
O         -4.90244        -2.66289         1.85697
O          3.55649        -9.14022         1.25420
O          1.50906        -4.22279        -1.92633
O         -2.42493        -5.81352         1.68911
H         -1.94335        -6.61604         2.00647
O         -9.95072         5.46856         0.22224
H         -9.96844         5.26694        -0.73591
O         -6.42368        -4.44010        -1.65003
O         -0.28096        -1.98621        -1.46406
O         -2.77389         3.46577         2.00555
O          7.80942         5.59902         1.89819
H          7.19368         6.31615         2.18662
O        -10.25381        -2.67988         1.70764
H        -10.18921        -2.12436         2.51571
O          6.42414         1.51115         1.99748
H          7.05797         1.70784         2.73030
O         -5.94676         6.78333        -1.97202
O          7.16903         0.73059        -1.49149
H          7.88316         0.04641        -1.41520
O         -9.46898        -1.89100        -1.73966
H         -9.07384        -2.43983        -2.44864
O          3.11766        -0.44135        -2.06596
H          3.84082        -0.06926        -2.62579
O         -0.72935        -3.76198         1.66552
H         -1.37047        -4.35603         2.13171
O         -0.07187        11.17169        -0.77796
H         -0.21124        11.19027         0.19065
O         -1.42545         3.81183        -1.28915
O          1.85445         4.81688         2.66590
H          1.49888         5.71609         2.89446
O          6.39719         7.82517         1.67230
H          5.65081         8.39601         1.98331
O         -0.33144        -7.48122        -2.58931
H          0.56444        -7.50973        -3.03624
O         -4.71704        -1.90726        -1.34621
O          3.85666         8.88776         1.42943
O         -7.32438        -5.67324         1.64991
H         -8.20685        -5.86330         2.03043
O          4.84107         1.54461        -2.00094
H          5.69985         1.30667        -2.43193
O          9.15854        -1.28521         3.26654
H          8.19991        -1.45815         3.40702
O          1.85892         7.37673         1.97432
H          2.30219         8.21080         2.26140
O          0.01925       -11.58314        -0.87508
H          0.01946       -11.57824         0.10402
O         -3.82175         7.99497        -2.50538
H         -4.60465         7.55824        -2.91876
O          6.54615        -1.44906         2.42184
H          5.91367        -2.18151         2.58650
O         -2.23459         6.19029         1.38554
H         -3.00119         6.76054         1.62920
O          8.83841        -1.04911        -0.41947
H          8.99449        -2.01137        -0.54799
H         11.68683        -1.56838         1.63615
H         11.96114         0.79666         1.01798
H         10.94334         3.14643         0.73061
H          9.05458         5.02854        -1.13209
H          7.64649         6.82322        -1.21278
H          7.11728         9.43251        -0.81331
H          5.05938        10.68373        -1.06926
H          2.39542        10.92780        -0.76489
H          0.17298         9.82802        -2.30952
H         -2.50346        10.78259        -0.61029
H         -5.02286        10.75202        -0.62044
H         -7.13809         9.58737        -0.94034
H         -8.51247         7.37890        -0.29824
H         -8.81015         5.06622         1.88687
H        -10.90154         3.16165         0.50582
H        -12.10876         1.00933         0.30449
H        -12.18764        -1.41631         0.50030
H        -10.69865        -3.34244        -0.82723
H         -9.57727        -5.49903        -0.47227
H         -8.36718        -7.77685        -0.16739
H         -7.15946        -9.90663        -0.33883
H         -5.12198       -11.19332        -0.71810
H         -2.50337       -11.26750        -1.14088
H          0.08299       -10.27057        -2.45463
H          2.44017       -11.29825        -0.61981
H          5.04905       -10.87480        -1.28850
H          7.12650        -9.68029        -0.78981
H          8.23227        -7.71530         1.23680
H          9.43353        -5.55619         1.26563
H         10.30488        -3.56099         1.99239
