         404
 CSIRO Nanostructure Databank - Neutral Graphene Oxide Data Set
C          1.24609         2.06922        -0.07589
C          1.23360         3.47506        -0.04418
C          2.42427         1.37141         0.11133
C          2.40519         4.20774         0.19392
C          1.25721         6.42848        -0.03573
C          1.25172         7.82560         0.03111
C          2.40518         5.66320         0.25597
C          2.35742         8.54438         0.50287
C          1.18315        10.72554         0.53378
C          1.18712        12.10668         0.51282
C          2.38704         9.98293         0.58185
C          2.39878        12.84065         0.44784
C          1.23151        15.03991         0.48681
C          1.24642        16.44160         0.42416
C          2.39375        14.27724         0.35731
C          2.45911        17.15875         0.33686
C          2.48319        18.59277         0.40755
C          3.64553         2.06803         0.33891
C          3.63530         3.50434         0.40364
C          4.85705         1.36281         0.47961
C          4.85046         4.20816         0.63639
C          3.60144         6.33746         0.63612
C          3.53620         7.77772         0.90777
C          4.83071         5.64973         0.76593
C          4.88779         8.55855         1.03304
C          3.63307        10.70032         0.62819
C          3.63549        12.12103         0.47785
C          4.87665         9.99746         0.72668
C          4.89244        12.83020         0.41997
C          3.66163        14.97353        -0.07487
C          3.68840        16.44659         0.23967
C          4.92874        14.24748         0.29816
C          4.90924        17.13220         0.27881
C          3.66840        19.27401         0.39534
C          4.92169        18.57255         0.35287
C          6.08148         2.04645         0.61949
C          6.07700         3.48418         0.69529
C          7.31566         1.35025         0.68576
C          7.31982         4.16781         0.79876
C          6.05905         6.37536         0.92084
C          6.11737         7.77927         0.88170
C          7.31336         5.61553         1.02838
C          7.34656         8.49208         0.63383
C          6.10512        10.66718         0.59349
C          6.11543        12.10788         0.48354
C          7.33630         9.91937         0.53875
C          7.34382        12.81768         0.49478
C          6.14367        14.94986         0.35747
C          6.15829        16.41243         0.31117
C          7.37234        14.22406         0.46486
C          7.35260        17.12153         0.41436
C          6.13589        19.25913         0.36080
C          7.37492        18.56456         0.36608
C          8.54084         2.03485         0.68110
C          8.54211         3.47767         0.68601
C          9.78235         1.33620         0.67472
C          9.77355         4.18553         0.42132
C          8.64345         6.37212         0.78794
C          8.57183         7.80476         0.46716
C          9.77562         5.58380         0.30812
C          9.75288         8.49007         0.06169
C          8.56547        10.59978         0.32162
C          8.60208        12.05661         0.57981
C          9.74552         9.91534         0.02359
C          9.91318        12.79080         0.47680
C          8.64570        14.92698         0.48201
C          8.62090        16.40322         0.63085
C          9.85169        14.26862         0.42401
C          9.91774        17.18543         0.48452
C          8.59076        19.27460         0.25920
C          9.84605        18.63198         0.18972
C         10.99942         2.00651         0.49522
C         10.99412         3.43454         0.24325
C         12.24123         1.31421         0.52188
C         12.19498         4.07848        -0.07958
C         10.89007         6.29592        -0.30861
C         10.95745         7.76879        -0.21951
C         12.18779         5.48159        -0.50717
C         12.19002         8.45744        -0.39475
C         10.94300        10.64948        -0.54496
C         11.09426        12.08110        -0.07053
C         12.23177         9.86253        -0.45637
C         12.26845        12.75698        -0.31132
C         11.13600        14.99455         0.36120
C         11.14641        16.45382         0.14845
C         12.37027        14.22343        -0.02617
C         12.30076        17.14453        -0.20702
C         11.04348        19.30157        -0.06641
C         12.27747        18.60024        -0.19749
C         13.46147         1.95989         0.26881
C         13.44477         3.37669        -0.07956
C         14.69735         1.27105         0.37289
C         14.62310         4.03822        -0.44039
C         13.46278         6.20044        -0.57576
C         13.46031         7.67425        -0.38429
C         14.64106         5.46618        -0.63383
C         14.75754         8.42833        -0.50630
C         13.47271        10.58635        -0.58272
C         13.48170        12.04031        -0.63699
C         14.69272         9.90666        -0.61752
C         14.69279        12.75005        -0.82711
C         13.45505        14.99581        -0.72127
C         13.52819        16.47769        -0.56736
C         14.65907        14.20464        -1.12290
C         14.72690        17.18054        -0.81259
C         13.49209        19.27382        -0.27310
C         14.74510        18.62722        -0.49337
C         15.91738         1.84819        -0.05363
C         15.85419         3.20826        -0.73229
C         17.13193         1.17182        -0.01869
C         17.12476         3.97838        -0.47579
C         15.91802         6.14675        -1.02224
C         15.97437         7.69717        -1.03766
C         17.14658         5.32629        -0.83411
C         17.23759         8.50289        -1.01066
C         15.93710        10.66742        -0.48557
C         15.94263        12.11011        -0.74313
C         17.26117         9.91159        -0.55876
C         17.18355        12.83731        -0.80415
C         15.94915        14.93619        -1.43521
C         15.92920        16.42223        -1.09562
C         17.20487        14.24008        -0.95699
C         17.16980        17.01992        -1.29497
C         15.87447        19.43738        -0.24478
C         17.19551        19.12482        -0.66787
C         18.36664         1.77542        -0.66916
C         18.31204         3.21971        -0.23564
C         19.70102         1.15601        -0.32248
C         19.47711         3.82269         0.27577
C         18.42273         5.94136        -1.09040
C         18.43584         8.03334        -1.48037
C         19.48699         5.87807        -0.24551
C         19.70795         8.64332        -1.16141
C         18.46569        10.71665        -0.86283
C         18.43371        12.12216        -0.80490
C         19.70141        10.05998        -1.05850
C         19.67271        12.84346        -0.86820
C         18.43215        14.96063        -0.85823
C         18.43745        16.41915        -0.95655
C         19.64633        14.26154        -0.73893
C         19.57894        17.19550        -0.69842
C         18.44510        19.43787        -0.18024
C         19.62263        18.65200        -0.53309
C         20.86803         1.90844        -0.17476
C         20.77699         3.34487         0.03054
C         22.16254         1.27479        -0.09283
C         21.98572         4.21390        -0.09613
C         20.78858         6.56465        -0.28282
C         20.88169         7.92818        -0.86196
C         22.01831         5.74490         0.02993
C         22.13468         8.61153        -0.91434
C         20.93935        10.76103        -1.08943
C         20.91023        12.17094        -1.01060
C         22.14768         9.99792        -1.17035
C         22.16659        12.94621        -1.11731
C         20.88703        14.97361        -0.39522
C         20.84477        16.49942        -0.33441
C         22.19211        14.32474        -0.58637
C         22.14546        17.17866        -0.42939
C         20.86112        19.28238        -0.45803
C         22.12514        18.60416        -0.53103
C         23.35502         1.98705        -0.00050
C         23.31591         3.47132        -0.13235
C         24.62116         1.33509         0.06870
C         24.56706         4.21937         0.21327
C         23.33653         6.46792        -0.18632
C         23.37607         7.86183        -0.74658
C         24.60574         5.70067        -0.04680
C         24.59206         8.48542        -0.90410
C         23.41414        10.69589        -1.44468
C         23.45563        12.19514        -1.33910
C         24.68283         9.91012        -1.28017
C         24.69535        12.81810        -0.83034
C         23.38997        14.98813        -0.35139
C         23.36794        16.47398        -0.27821
C         24.61589        14.15003        -0.32854
C         24.56329        17.26996        -0.27176
C         23.32372        19.33766        -0.56915
C         24.57792        18.69713        -0.46673
C         25.85944         2.00844         0.11074
C         25.86535         3.48360         0.26954
C         27.10049         1.35474         0.10060
C         27.13362         4.22632         0.05320
C         25.87372         6.27653        -0.59586
C         25.87791         7.74025        -0.92310
C         27.14075         5.59715        -0.25492
C         27.16615         8.47400        -0.86999
C         25.95053        10.63104        -1.00534
C         25.90464        12.06582        -0.75168
C         27.14229         9.92415        -0.94227
C         27.11429        12.70756        -0.33367
C         25.76891        14.58691         0.35449
C         25.76943        16.64040         0.18098
C         27.05695        14.02677         0.17859
C         27.04714        16.84541        -0.27282
C         25.77572        19.49599        -0.28787
C         27.08227        19.00805        -0.43639
C         28.34144         2.06120         0.15900
C         28.35254         3.51587         0.13099
C         29.56406         1.38200         0.14885
C         29.57372         4.23821         0.11941
C         28.35493         6.32541        -0.36586
C         28.33754         7.74817        -0.66615
C         29.57206         5.64561        -0.07769
C         29.64851         8.44277        -0.72846
C         28.41896        10.73267        -1.12965
C         28.38620        12.05279        -0.39519
C         29.69389         9.93884        -0.90105
C         29.55375        12.70642        -0.00525
C         28.26377        14.79845         0.39226
C         28.22517        16.19991         0.22647
C         29.53718        14.10633         0.37909
C         29.38081        17.05542         0.52937
C         28.30769        19.40777         0.14116
C         29.44971        18.54412         0.31145
C         30.81201         2.07294         0.17389
C         30.82698         3.51481         0.22318
C         32.03236         1.37808         0.17099
C         32.03780         4.20260         0.32853
C         30.81608         6.39177         0.04943
C         30.83793         7.73925        -0.18528
C         32.01787         5.67546         0.65245
C         32.05380         8.54442         0.09181
C         30.89934        10.68583        -0.46666
C         30.84044        12.01482        -0.08784
C         32.19459         9.92612        -0.54617
C         32.05606        12.75296         0.19498
C         30.73660        14.82381         0.52235
C         30.69910        16.27868         0.77536
C         32.01856        14.15168         0.42982
C         31.94654        17.04425         0.71508
C         30.69252        19.15236         0.49139
C         31.93863        18.44806         0.64096
C         33.27076         2.06622         0.17444
C         33.27647         3.50526         0.25114
C         34.50240         1.37250         0.13901
C         34.51284         4.20758         0.20163
C         33.33406         6.35459         0.35886
C         33.33874         7.81856         0.37482
C         34.51997         5.66196         0.21992
C         34.60490         8.53124         0.15598
C         33.37390        10.66753         0.01591
C         33.31523        12.06832         0.20516
C         34.59959         9.94605         0.12143
C         34.52496        12.80639         0.37426
C         33.23645        14.85887         0.65763
C         33.18793        16.30543         0.93344
C         34.49688        14.20077         0.59987
C         34.48773        17.10507         0.91400
C         33.17181        19.17348         0.55373
C         34.42548        18.54515         0.58046
C         35.72934         2.06059         0.12555
C         35.73374         3.50139         0.10860
C         36.97148         1.36121         0.13300
C         36.98184         4.20174         0.03622
C         35.78777         6.36789         0.09970
C         35.81140         7.80300         0.08399
C         36.99911         5.66105        -0.00633
C         37.05145         8.51024        -0.00553
C         35.84877        10.64027         0.10583
C         35.80272        12.11958         0.12605
C         37.04999         9.93450         0.01158
C         37.09871        12.84580         0.45243
C         35.75281        14.94575         0.72752
C         35.74223        16.37082         0.71260
C         36.99830        14.27966         0.84225
C         36.92399        17.11937         0.54642
C         35.63561        19.22050         0.30714
C         36.89044        18.55149         0.33066
C         38.18220         2.04791         0.14601
C         38.17727         3.47736         0.08716
C         39.45323         1.33567         0.14141
C         39.45490         4.21337         0.17289
C         38.23255         6.37594        -0.12897
C         38.27771         7.77517        -0.10194
C         39.48552         5.59809        -0.44017
C         39.55956         8.47892        -0.02295
C         38.35524        10.68493        -0.19499
C         38.30067        11.98863         0.57871
C         39.58779         9.86369         0.14879
C         39.43753        12.37484         1.23164
C         38.17476        15.07359         0.98211
C         38.17320        16.45685         0.65804
C         39.42451        14.53174         1.37677
C         39.41509        17.14157         0.50338
C         38.11497        19.21539         0.12937
C         39.36714        18.53930         0.18718
C         40.65060         1.96781         0.13810
C         40.74235         3.43787         0.21282
C         41.96375         4.16100        -0.18524
C         40.78200         6.32198        -0.16155
C         40.79359         7.71760         0.00485
C         41.97705         5.52490        -0.26123
C         42.01967         8.43918         0.20376
C         40.81826        10.54017         0.47452
C         40.76016        11.88684         0.94133
C         42.03377         9.79035         0.43154
C         41.86254        12.80012         1.07861
C         40.67126        15.05272         1.03496
C         40.66859        16.44571         0.59339
C         41.82998        14.18926         1.11417
C         41.84624        17.16448         0.31723
C         40.58917        19.21573        -0.05956
C         41.79637        18.52822        -0.00460
O         11.27861         5.77143        -1.63213
O         18.49456         6.82277        -2.18194
O         13.61340        14.53872        -2.11530
O         25.62908        15.68463         1.21194
O         39.36539        13.39506         2.18759
O         22.80674        12.86705        -2.46123
O         12.15772        14.56848         1.36457
O         16.68353        10.22958         0.73451
O         24.09914         6.45828         1.08997
O         15.76071         6.93096        -2.25685
O         29.93559         9.04520        -2.07001
O         25.13943         3.88449         1.50758
O         22.69441         3.90999        -1.37293
O         29.84662        16.71307         1.88527
O         17.21290        18.30420        -1.81382
O         14.30427         7.97313         0.81380
O         27.22524        17.84272        -1.23781
O         24.13155        10.19049        -2.62238
O         36.58403        12.74923        -0.95703
O          9.42246        12.30434         1.78670
O         33.85913        16.72980         2.18192
O         32.50720         8.43946         1.47744
O         21.34325         6.43846         1.09735
O         19.31045         5.07772         0.89878
O          4.09157         8.18640         2.19448
O          9.36401        16.85632         1.81255
O         25.82627         6.69959        -1.99275
O          8.17478         6.03712         2.13126
O         40.13866         4.04094         1.44044
O         20.74884        15.68252         0.88781
O         39.45880         5.35689        -1.89178
H         39.41205         6.22884        -2.33854
O          3.62695        14.90492        -1.56147
H          2.81729        15.37952        -1.84855
O         18.25562         1.67480        -2.11938
H         17.41534         2.12836        -2.38624
O         10.64128        10.77486        -1.99502
H         10.62227         9.86796        -2.36966
O         32.52403         9.69114        -1.95273
H         31.68642         9.40132        -2.39510
O         38.47412        10.96028        -1.62208
H         37.76146        11.61343        -1.83498
O         15.82052         2.96236        -2.18430
H         14.98242         2.49426        -2.38611
O         16.08160        14.90037        -2.89548
H         15.16889        14.99692        -3.25497
O         31.83717         5.77302         2.10651
H         31.96153         6.72670         2.33325
O         28.42124        11.11556        -2.53845
H         28.68498        10.31389        -3.04494
H          0.30721         1.52713        -0.25551
H          0.27773         3.99289        -0.19981
H          2.43432         0.27272         0.07487
H          0.33923         5.92715        -0.36987
H          0.34474         8.35949        -0.28490
H          0.21986        10.19779         0.54221
H          0.22421        12.63399         0.49859
H          0.26906        14.54807         0.68599
H          0.30276        16.99554         0.52898
H          1.52779        19.13394         0.46805
H          4.85177         0.26382         0.43226
H          3.68079        20.37268         0.44050
H          7.31026         0.25014         0.67651
H          6.13902        20.35923         0.37167
H          9.77860         0.24161         0.78666
H          8.55053        20.36858         0.14655
H         12.24241         0.23843         0.75318
H         11.04259        20.39664        -0.17422
H         14.69452         0.23206         0.73577
H         13.49396        20.36757        -0.15002
H         17.20104         0.21306         0.51962
H         15.70503        20.37632         0.30542
H         19.79558         0.06476        -0.43339
H         18.57277        20.23683         0.56501
H         22.19764         0.17508        -0.09478
H         20.88262        20.37395        -0.32193
H         24.62793         0.23436         0.05237
H         23.27920        20.43452        -0.63509
H         27.12705         0.25619         0.04031
H         25.63783        20.51437         0.10725
H         29.56985         0.28191         0.12226
H         28.42265        20.44817         0.48417
H         32.02943         0.27799         0.15244
H         30.74574        20.24909         0.41096
H         34.50009         0.27238         0.12369
H         33.12500        20.25806         0.37445
H         36.96507         0.26119         0.15390
H         35.60935        20.30009         0.09635
H         39.41621         0.23665         0.09858
H         38.11035        20.29669        -0.07566
H         41.58382         1.38946         0.06145
H         42.89120         3.58919        -0.33810
H         42.94027         6.02885        -0.43079
H         42.97082         7.89022         0.21182
H         42.98761        10.29868         0.63020
H         42.86872        12.35727         0.99987
H         42.81294        14.68448         1.06198
H         42.82160        16.66126         0.37048
H         40.57421        20.28701        -0.30616
H         42.73457        19.06423        -0.20640
