         276
 CSIRO Nanostructure Databank - Neutral Graphene Oxide Data Set
C        -11.04425         0.66738        -0.95950
C         -9.94912         1.62118        -0.71828
C         -8.60499         1.08259        -0.81406
C         -7.53616         1.51000        -0.10097
C         -6.24560         0.70695        -0.22711
C         -5.04040         1.43459         0.35484
C         -3.75305         0.65362         0.45375
C         -2.49313         1.40739         0.15098
C         -1.21048         0.68490        -0.21177
C          0.04828         1.41323        -0.00519
C          1.32948         0.61414         0.01166
C          2.57386         1.49564        -0.16933
C          3.81087         0.84590        -0.68323
C          5.14685         1.42175        -0.32605
C          6.35426         0.92690        -1.11567
C          7.63170         1.72444        -0.93992
C          9.02455         1.24382        -1.32065
C         10.13243         1.60544        -0.38568
C         11.23117         0.70147        -0.11842
C        -10.06729         2.92683        -0.32015
C         -8.90490         3.71106         0.29782
C         -7.57784         2.91765         0.35923
C         -6.26627         3.62816         0.22576
C         -4.98260         2.87797         0.10106
C         -3.78303         3.60654         0.46724
C         -2.40722         2.83989         0.52392
C         -1.15796         3.53310         0.27264
C          0.04960         2.78895         0.21666
C          1.31848         3.34951         0.89406
C          2.60362         2.75701         0.33547
C          3.86830         3.39723         0.93364
C          5.15861         2.73892         0.37552
C          6.41736         3.56275         0.38793
C          7.66779         2.98104        -0.13427
C          8.85683         3.67481        -0.00831
C         10.10255         2.93352        -0.01395
C         -8.70950         5.15518        -0.18883
C         -7.51368         5.82122        -0.19717
C         -6.20711         5.06165        -0.22172
C         -5.01654         5.72252         0.56592
C         -3.72064         5.05655         0.04371
C         -2.43593         5.77220         0.37273
C         -1.13249         5.02778         0.05715
C          0.04797         5.67075         0.76382
C          1.29863         4.90263         1.04007
C          2.62217         5.68255         1.23652
C          3.80928         4.91924         0.62262
C          5.04897         5.67130         0.24370
C          6.37214         5.04803         0.59428
C          7.66861         5.88987         0.71785
C          8.88399         5.20069         0.05029
C         -7.29678         7.19941        -0.61086
C         -6.06384         7.82277        -0.44606
C         -5.11877         7.28972         0.61683
C         -3.66239         7.98955         0.74376
C         -2.45361         7.13247         0.33275
C         -1.14193         7.72082        -0.08294
C          0.05695         7.17778         0.65657
C          1.30003         7.99091         0.80560
C          2.60948         7.22027         0.84559
C          3.78537         7.88049         0.18699
C          5.04650         7.12529        -0.22856
C          6.28002         7.92887         0.12435
C          7.48068         7.34027         0.33240
C         -5.79042         9.11338        -0.99637
C         -4.61851         9.80707        -0.77177
C         -3.56645         9.36161         0.08898
C         -2.42694        10.16133         0.22872
C         -1.24752         9.93465         1.02269
C          0.11592        10.43066         0.56153
C          1.31158         9.44396         0.41138
C          2.43924        10.01211        -0.06118
C          3.65742         9.24103        -0.50360
C          4.95918         9.99192        -0.28234
C          6.13349         9.37726        -0.02384
C        -11.03481        -0.70849        -0.94028
C         -9.94356        -1.66170        -0.71042
C         -8.58677        -1.15159        -0.80623
C         -7.55283        -1.58865        -0.04831
C         -6.34926        -0.74826         0.35786
C         -5.07548        -1.48526        -0.06008
C         -3.73041        -0.88250         0.37882
C         -2.56013        -1.46682        -0.47225
C         -1.19785        -0.83987        -0.05842
C         -0.06068        -1.40516        -0.90448
C          1.22545        -0.61818        -0.92091
C          2.51656        -1.36008        -1.16884
C          3.79785        -0.57640        -1.12791
C          5.08897        -1.36478        -1.30507
C          6.37642        -0.59314        -1.42028
C          7.73808        -1.27647        -1.36128
C          8.63411        -0.94815        -0.20516
C         10.01682        -1.51541        -0.26187
C         11.18136        -0.66829        -0.09557
C        -10.07163        -2.96979        -0.28158
C         -8.88157        -3.74156         0.03542
C         -7.60973        -3.01451         0.46018
C         -6.36611        -3.74472        -0.07458
C         -5.13659        -2.95293        -0.34759
C         -3.84276        -3.71882        -0.32759
C         -2.53583        -2.98635        -0.30366
C         -1.28758        -3.70181        -0.67060
C         -0.07054        -2.91084        -1.03979
C          1.25274        -3.62561        -0.96666
C          2.55168        -2.84526        -0.95877
C          3.79716        -3.45110        -0.37201
C          5.11403        -2.74129        -0.66200
C          6.37062        -3.52141        -0.43151
C          7.64691        -3.24622        -1.21439
C          8.89855        -3.72656        -0.47144
C         10.08032        -2.88795        -0.31050
C         -8.85091        -5.11177         0.08742
C         -7.58949        -5.84605         0.17898
C         -6.36642        -5.09854        -0.17355
C         -5.19887        -5.91495        -0.72335
C         -3.86952        -5.13684        -0.81182
C         -2.54753        -5.85121        -0.81109
C         -1.27940        -5.07135        -0.67440
C          0.00055        -5.82579        -0.72907
C          1.21615        -5.00607        -0.39446
C          2.47215        -5.65062         0.08010
C          3.78208        -4.89938         0.02216
C          5.02102        -5.70350        -0.33501
C          6.32336        -4.98581         0.08957
C          7.56494        -5.82808        -0.35666
C          8.82615        -5.02842        -0.07370
C         -7.52664        -7.17188         0.50584
C         -6.27643        -8.00482         0.31920
C         -5.02842        -7.14687         0.17144
C         -3.69030        -7.77436         0.35716
C         -2.57689        -7.37144        -0.61802
C         -1.25738        -8.03727        -0.24301
C          0.01704        -7.29814        -0.44295
C          1.24823        -7.94053         0.13486
C          2.50954        -7.14695         0.27214
C          3.81645        -7.83529         0.21027
C          4.99302        -7.14638         0.13900
C          6.26306        -7.81916         0.43240
C          7.46324        -7.17723         0.32183
C         -6.06287        -9.13631         1.29610
C         -4.86109        -9.68474         1.52619
C         -3.52922        -9.10437         1.09963
C         -2.58334       -10.06788         0.34469
C         -1.25682        -9.34616         0.11395
C         -0.00017       -10.18707         0.26968
C          1.31835        -9.43014         0.15859
C          2.51221       -10.03762         0.33546
C          3.84655        -9.34651         0.12855
C          5.00706        -9.87453         0.94161
C          6.15150        -9.16384         1.01154
O          0.40729         7.76711         1.94304
O          1.26078         2.75857         2.17651
O         -6.83630         3.29704         1.55781
O         -5.81227         7.61832         1.79707
O         -3.10679        -3.55115         0.92063
O          0.29623        -0.56609        -2.03492
O          9.28976         0.86274        -2.45006
O          1.68417        -7.47530         1.45837
O         -4.19167        -6.77900         1.31346
O          3.80073        -3.86062         1.03518
O         -3.19876        -5.40277        -2.07411
O          3.72151         0.51961        -2.10189
O          5.40459         1.47593         1.09502
O          8.19449        -0.35828         0.77738
O          5.68388        -1.08779        -2.60469
O          7.58026        -3.59045        -2.45474
O          6.39847         4.15340         1.74670
O         -1.00392         8.41476        -1.08783
O         -5.19776        -1.96015        -1.42912
O          3.61319         7.95146         1.62413
O          1.54308        -5.01589         1.02048
O          4.18326         4.98529        -0.78124
O          6.77207         1.83374        -2.14718
O         -2.09146         1.22977        -1.25320
O          0.55329        -3.48279        -2.22557
O          0.17868        -6.78803        -1.82053
O          5.93604        -2.58633         0.57014
O          2.68537        -2.27070        -2.29322
O         -8.45281        -0.03071        -1.64224
O         -3.12485         3.26232         1.70807
O         -4.45607         1.05370         1.67153
O          0.33312         5.22629         2.10190
O          8.93068         5.62291        -1.31836
H          9.66144         5.15457        -1.77163
O         -3.14301       -10.51592        -0.88611
H         -3.26103        -9.73344        -1.47749
O          1.52626         0.08962         1.34815
H          1.46172         0.87738         1.95823
O          5.11787         7.08321        -1.68513
H          4.63658         6.27682        -1.98585
O         -5.10145         5.28951         1.92060
H         -5.56255         6.03900         2.39580
O         -0.86081         5.23277        -1.36016
H         -1.65569         4.92525        -1.85771
O         -6.44940        -0.65504         1.79662
H         -5.86182         0.07171         2.12063
O         -2.81573        -8.79974         2.32634
H         -3.26220        -8.01917         2.72531
O          6.38223        -4.94253         1.51319
H          5.74818        -4.24765         1.81363
O          3.83124         3.13739         2.32345
H          2.87692         3.03609         2.61089
O          4.94756        -5.74990        -1.77874
H          5.78162        -6.18335        -2.10276
O          2.89403         5.64816         2.64119
H          2.03923         5.78034         3.11007
O         -3.59501         5.01814        -1.41407
H         -3.87662         5.88314        -1.78340
O         -0.89317        -1.17108         1.30027
H         -1.73461        -1.34178         1.79551
O         -7.58239        -3.08867         1.90345
H         -7.09540        -2.29933         2.23995
O         -0.04242        11.09717        -0.68909
H         -0.10901        10.41221        -1.39096
O         -5.97536         5.01919        -1.65966
H         -5.50631         4.18551        -1.88708
O          4.18296        -9.63361        -1.27826
H          4.36155       -10.59479        -1.35098
O          7.53090        -6.12226        -1.77942
H          7.71981        -5.28673        -2.28808
O          8.36594        -1.22163        -2.56195
H          7.69468        -1.23443        -3.28088
O         -5.57305        -6.32759        -2.05510
H         -4.74085        -6.32145        -2.59157
O         -0.04708       -10.89042         1.51827
H         -0.07632       -10.22791         2.23978
O         -3.50063        -1.30089         1.74606
H         -3.98528        -0.68770         2.34405
O         -5.89044         0.63004        -1.62339
H         -6.60805         0.13955        -2.09116
O         -9.34058         3.89744         1.67446
H         -8.52085         3.98209         2.21779
O         -2.98184        -7.94647        -1.89646
H         -2.30918        -7.68196        -2.56213
O          8.00147         5.99038         2.12428
H          7.58131         5.22689         2.58806
O         -2.76209        -1.26004        -1.86568
H         -2.62527        -0.30786        -2.08391
O         -3.49980         8.18055         2.16817
H         -4.46108         8.07297         2.51166
O         -1.30030         9.47917         2.22852
H         -2.20398         9.07865         2.45727
O          3.45675         9.07088        -1.92816
H          4.20611         8.50717        -2.25133
O         -6.46362        -8.65360        -0.97747
H         -6.38077        -7.94724        -1.66670
H         12.12695        -1.20072         0.09763
H         12.19067         1.17198         0.15352
H         10.98069         3.40348         0.45948
H          9.81664         5.54351         0.58029
H          8.36609         7.97980         0.47557
H          7.04444         9.98385         0.10017
H          4.93495        11.08721        -0.39217
H          2.42362        11.08473        -0.31253
H          0.42496        11.20925         1.31133
H         -2.31381        10.98357        -0.49878
H         -4.49491        10.79229        -1.24676
H         -6.54849         9.56964        -1.65312
H         -8.10550         7.73301        -1.13900
H         -9.63767         5.74058        -0.29899
H        -11.06451         3.37268        -0.17991
H        -12.03939         1.13117        -1.06363
H        -12.02884        -1.17934        -1.03116
H        -11.06113        -3.44598        -0.19804
H         -9.77254        -5.69421        -0.07182
H         -8.45426        -7.70918         0.75949
H         -6.96350        -9.60965         1.71814
H         -4.79371       -10.56028         2.19165
H         -2.39789       -10.96721         0.98090
H         -0.03371       -10.97320        -0.53376
H          2.53937       -11.13207         0.46612
H          4.94525       -10.88425         1.37607
H          7.03580        -9.57786         1.52013
H          8.38885        -7.68971         0.62745
H          9.67383        -5.50554         0.44511
H         11.05468        -3.39143        -0.19577
