         344
 CSIRO Nanostructure Databank - Neutral Graphene Oxide Data Set
C          1.42486         1.99756         0.00714
C          1.29124         3.34894        -0.23716
C          2.65691         1.32519        -0.09544
C          2.42137         4.14629        -0.73337
C          1.19007         6.30723        -0.53392
C          1.15191         7.69194        -0.41261
C          2.41507         5.62631        -0.58505
C          2.33215         8.43496        -0.25949
C          1.07136        10.67735        -0.51336
C          1.10703        12.02843        -0.62235
C          2.23932         9.90201        -0.04374
C          2.32719        12.80804        -0.50744
C          1.13518        15.01654        -0.49377
C          1.13537        16.36549        -0.62956
C          2.31882        14.20248        -0.68410
C          2.32986        17.11969        -1.16071
C          2.39674        18.57360        -0.76026
C          3.85222         2.01100        -0.44075
C          3.76318         3.44610        -0.82193
C          5.08538         1.38889        -0.45982
C          4.98269         4.27514        -0.70130
C          3.63213         6.35670        -0.51255
C          3.59417         7.77741        -0.29185
C          4.89569         5.65315        -0.59321
C          4.82156         8.53157        -0.09880
C          3.53265        10.66911         0.10476
C          3.56343        12.09951        -0.25942
C          4.80990         9.92427         0.08385
C          4.78956        12.74774        -0.22054
C          3.58509        14.91130        -0.91346
C          3.61724        16.39698        -0.85863
C          4.86839        14.15425        -0.62887
C          4.79965        17.07581        -0.75365
C          3.57405        19.22566        -0.63997
C          4.85234        18.52895        -0.70768
C          6.29528         2.10944        -0.99710
C          6.25850         3.58041        -0.63760
C          7.57058         1.43425        -0.58388
C          7.39738         4.24899        -0.25856
C          6.19601         6.42342        -0.67183
C          6.11174         7.86179        -0.21410
C          7.29576         5.70635         0.11737
C          7.28186         8.52627         0.01504
C          6.01531        10.67576         0.26100
C          6.01722        12.07558         0.15079
C          7.28437         9.92002         0.58397
C          7.25002        12.84832         0.23805
C          6.00847        14.96663        -0.05811
C          6.08182        16.32378        -0.70960
C          7.30531        14.20775         0.01560
C          7.37538        17.05710        -0.64997
C          6.05755        19.19961        -0.63957
C          7.33927        18.53717        -0.58610
C          8.67296         2.10917        -0.12875
C          8.64307         3.56644         0.01593
C          9.91913         1.42988         0.11635
C          9.76368         4.27428         0.40910
C          8.62335         6.41345         0.03343
C          8.62217         7.88342        -0.28545
C          9.78314         5.73018         0.33323
C          9.82376         8.60443         0.27873
C          8.51671        10.71056         0.10833
C          8.48217        12.12053         0.71100
C          9.80138         9.97678         0.40802
C          9.77910        12.86791         0.52363
C          8.54972        14.95821         0.07144
C          8.58360        16.33777        -0.18124
C          9.77738        14.25664         0.35715
C          9.80838        17.07754        -0.08668
C          8.51896        19.21967        -0.41538
C          9.79499        18.53786        -0.30436
C         11.05515         2.10788         0.51865
C         10.96881         3.55302         0.95763
C         12.30702         1.44979         0.62502
C         12.27087         4.30379         0.78882
C         11.03953         6.44325         0.49929
C         11.04716         7.86008         0.48086
C         12.26126         5.71663         0.71214
C         12.26568         8.57950         0.62040
C         11.00116        10.73263         0.66075
C         10.98464        12.13682         0.72070
C         12.26380        10.01650         0.65292
C         12.24290        12.87867         1.10579
C         11.02753        15.00012         0.42479
C         10.99781        16.42924         0.22506
C         12.21303        14.34076         0.71475
C         12.22191        17.27617         0.49887
C         10.97344        19.22524        -0.41381
C         12.27715        18.47020        -0.45067
C         13.50374         2.13991         0.86381
C         13.49635         3.60665         0.93838
C         14.73627         1.44905         0.84355
C         14.71152         4.30574         1.07090
C         13.49716         6.43025         0.81161
C         13.50489         7.85419         0.73180
C         14.72818         5.72950         1.00163
C         14.73453         8.54838         0.73337
C         13.46703        10.72884         0.55394
C         13.51166        12.16525         0.65805
C         14.72890         9.96805         0.22995
C         14.69689        12.86150         0.52566
C         13.47736        15.09368         0.85105
C         13.52375        16.51369         0.48742
C         14.77371        14.31452         0.76459
C         14.72655        17.16017         0.30431
C         13.52365        19.27401        -0.21839
C         14.74293        18.60724        -0.01512
C         15.96723         2.11106         0.99555
C         15.95434         3.54332         1.47655
C         17.18511         1.45192         0.82604
C         17.24389         4.27430         1.19537
C         15.95130         6.46739         1.09623
C         15.96564         7.86722         0.89962
C         17.21381         5.74120         1.35494
C         17.22959         8.60961         0.76579
C         15.95268        10.76111         0.69867
C         15.95952        12.16072         0.06750
C         17.23971         9.99887         0.54601
C         17.24525        12.90998         0.33612
C         16.01138        15.05231         0.45099
C         15.97898        16.43043         0.36144
C         17.25463        14.30222         0.33601
C         17.25924        17.22361         0.45302
C         15.96391        19.27376        -0.17917
C         17.23118        18.49860        -0.39093
C         18.43363         2.14110         0.85560
C         18.43168         3.59602         1.00978
C         19.63375         1.46108         0.66592
C         19.70300         4.29990         0.89493
C         18.52072         6.49118         1.21268
C         18.47564         7.92162         0.82475
C         19.74659         5.70904         0.94762
C         19.67018         8.60505         0.59649
C         18.44910        10.72514         0.38013
C         18.46662        12.16777         0.26017
C         19.68025        10.01279         0.35361
C         19.69062        12.85135         0.03501
C         18.49688        15.01272         0.16486
C         18.50593        16.42639         0.14111
C         19.70215        14.29014        -0.07831
C         19.70117        17.12143        -0.07856
C         18.50746        19.27225        -0.17150
C         19.69642        18.59562        -0.06239
C         20.89234         2.13899         0.60208
C         20.91325         3.57482         0.70308
C         22.09137         1.44241         0.40318
C         22.16501         4.26279         0.62529
C         20.97275         6.39754         0.78417
C         20.94915         7.87496         0.76428
C         22.18393         5.70062         0.63889
C         22.20147         8.57570         0.38136
C         20.89271        10.72390         0.05926
C         20.90307        12.10392        -0.12082
C         22.12349         9.92194        -0.29675
C         22.13474        12.74814        -0.75562
C         20.89144        15.00780        -0.38059
C         20.90271        16.40855        -0.32063
C         22.18687        14.31401        -0.78193
C         22.18522        17.17990        -0.56930
C         20.95860        19.27249         0.07570
C         22.16294        18.59591        -0.02668
C         23.34454         2.11758         0.35326
C         23.36956         3.53135         0.49894
C         24.55262         1.40346         0.12136
C         24.68798         4.23590         0.68137
C         23.43869         6.39639         0.37536
C         23.44063         7.80355         0.13911
C         24.64090         5.68344         0.25160
C         24.61557         8.48020        -0.18267
C         23.41307        10.65772         0.07323
C         23.42041        12.11988        -0.26576
C         24.61933         9.95009        -0.53952
C         24.62060        12.78647        -0.05738
C         23.30088        14.91566         0.10863
C         23.40530        16.40843        -0.10650
C         24.62862        14.21438        -0.01234
C         24.59112        17.07176         0.11562
C         23.40633        19.24503         0.17320
C         24.62323        18.53718         0.17660
C         25.81243         2.04656        -0.02993
C         25.88318         3.49396         0.13274
C         26.93388         1.32553        -0.45911
C         27.03912         4.18702        -0.15305
C         25.84622         6.36222        -0.07290
C         25.84327         7.77587        -0.24913
C         27.07828         5.64228        -0.21048
C         27.07439         8.48747        -0.42914
C         25.89186        10.65268        -0.14024
C         25.88404        12.03889         0.09648
C         27.10027         9.93751        -0.26063
C         27.10975        12.71850         0.38315
C         25.81929        14.90249         0.24281
C         25.82455        16.34014         0.34734
C         27.02124        14.16096         0.54656
C         27.02806        17.04208         0.55258
C         25.85279        19.19976         0.37709
C         27.05998        18.48759         0.55138
C         28.24564         1.94534        -0.57479
C         28.29923         3.46547        -0.41148
C         29.37925         1.32227        -1.27875
C         29.37327         4.22557        -1.15948
C         28.26963         6.33960        -0.46683
C         28.26157         7.75253        -0.57570
C         29.59016         5.58872        -0.48185
C         29.50093         8.47703        -0.90334
C         28.32398        10.63753        -0.12846
C         28.35888        11.99695         0.27052
C         29.53950         9.96190        -0.63963
C         29.68279        12.64395         0.26745
C         28.07064        14.92618         1.05750
C         28.23197        16.32002         0.82938
C         29.88054        13.91647         0.83630
C         29.50964        16.95894         0.88652
C         28.29931        19.12412         0.77352
C         29.50691        18.40091         0.89614
C         30.53602         2.01819        -1.52243
C         30.64548         3.43254        -1.33341
C         31.83183         4.14513        -1.52494
C         30.77062         6.34103        -1.08371
C         30.77219         7.74096        -1.10103
C         31.89084         5.54680        -1.44396
C         31.90133         8.56058        -1.49287
C         30.90645        10.55864        -0.38156
C         30.84029        12.07438        -0.33906
C         31.94937         9.89844        -1.24992
C         31.94667        12.90048        -0.58810
C         30.89095        14.82561         0.46563
C         30.77762        16.26328         0.80497
C         31.93285        14.27633        -0.30421
C         31.95262        17.01055         0.89394
C         30.74289        19.10265         1.01651
C         31.93634        18.41375         1.04389
O          2.70368        10.34356         1.28355
O         14.22224        14.73136         2.08795
O          4.45175        14.39005        -1.99672
O         29.31834         9.47717        -1.99514
O         29.01746        14.29478         1.87175
O         28.72142         2.63093         0.67122
O         21.80038         8.54273         1.79108
O          6.86619        16.45678        -1.92211
O          2.97717         3.69496        -2.03544
O         17.94306         6.23383         2.54288
O         22.51166        14.71472        -2.13407
H         22.55483        13.89182        -2.68254
O         17.35227        17.66049         1.84074
H         17.28963        16.86726         2.41310
O          2.17810        17.11047        -2.62477
H          3.04613        17.35308        -3.01207
O         29.94361         5.32123         0.89949
H         30.18877         6.16881         1.32496
O         12.40774        17.90323        -1.79914
H         12.40577        18.64469        -2.43990
O         15.93189        12.12756        -1.38312
H         15.36060        11.37376        -1.67218
O         22.32511        17.37889        -2.01169
H         22.41382        16.47712        -2.40978
O          6.59984         6.41008        -2.07979
H          5.82820         6.68543        -2.61842
O         31.22204        10.17838         1.00425
H         32.07238        10.60266         1.24542
O         22.04782         9.62909        -1.70847
H         22.29963        10.45030        -2.19715
O         22.01683        12.30840        -2.17015
H         21.06552        12.34504        -2.41158
O         10.74816         3.51115         2.41809
H         11.53680         3.08473         2.81749
O          5.64022        15.24923         1.33358
H          5.82128        14.44665         1.86863
O         15.87306         3.46861         2.94824
H         16.74608         3.16578         3.27731
O          7.38197         9.73554         2.02563
H          6.58344         9.24590         2.31546
O         24.89600         4.26967         2.14539
H         25.78979         4.64143         2.30571
O          6.88934         5.76029         1.52162
H          7.57845         5.30037         2.04724
O         23.59527        10.58343         1.51381
H         22.75698        10.30023         1.94204
O         22.84893        14.69962         1.48453
H         23.55372        15.01540         2.08848
O          8.42725        10.85291        -1.32674
H          8.57562         9.95856        -1.72531
O         15.79563        10.99154         2.12402
H         15.85600        10.12789         2.58451
O         12.26825        12.86300         2.57712
H         13.05709        13.40159         2.83683
O         14.77974         9.80104        -1.23568
H         13.95864         9.33421        -1.50203
O         24.55660        10.06611        -1.98846
H         25.35184         9.62591        -2.35625
O         28.83908         4.46988        -2.48857
H         29.52149         4.94993        -3.00368
O         12.07055        17.81183         1.84497
H         12.12969        17.06447         2.47670
O          6.21868         2.02215        -2.46479
H          5.36743         2.42916        -2.73611
O          8.78196         8.01881        -1.75364
H          8.08615         7.43399        -2.15837
O          8.33644        12.05307         2.15748
H          9.06630        11.50225         2.51303
O         17.20860        18.06545        -1.79286
H         17.31190        18.86054        -2.35622
H          0.54571         1.43005         0.34569
H          0.33572         3.84322        -0.01407
H          2.71128         0.25355         0.14258
H          0.24597         5.75264        -0.61510
H          0.17710         8.19655        -0.38952
H          0.13894        10.14737        -0.75529
H          0.19465        12.55428        -0.93893
H          0.21297        14.51599        -0.16168
H          0.21077        16.93104        -0.43771
H          1.45003        19.13178        -0.69705
H          5.16402         0.32221        -0.19990
H          3.58963        20.30946        -0.44585
H          7.62706         0.34369        -0.72474
H          6.05116        20.29935        -0.57944
H          9.98262         0.35456        -0.11241
H          8.51554        20.32036        -0.38724
H         12.34893         0.36432         0.44399
H         10.96463        20.30832        -0.61490
H         14.73186         0.36762         0.63588
H         13.53421        20.34629        -0.47385
H         17.18500         0.37676         0.58844
H         15.95260        20.34910        -0.42384
H         19.61750         0.36710         0.54803
H         18.49465        20.37323        -0.19779
H         22.06969         0.34754         0.29686
H         20.95620        20.35612         0.27349
H         24.50224         0.31125        -0.00370
H         23.41489        20.32099         0.40826
H         26.81293         0.27747        -0.77281
H         25.86889        20.29955         0.41280
H         29.31318         0.25486        -1.53697
H         28.33630        20.22335         0.81354
H         31.41139         1.48161        -1.92137
H         32.75311         3.59343        -1.76676
H         32.83825         6.04102        -1.70228
H         32.75156         8.08063        -2.00119
H         32.83301        10.47288        -1.56526
H         32.83591        12.47692        -1.07663
H         32.77064        14.90366        -0.63945
H         32.92298        16.49672         0.84245
H         30.73010        20.20099         1.06509
H         32.88753        18.95638         1.13500
