         621
 CSIRO Nanostructure Databank - Neutral Graphene Oxide Data Set
C          5.81230        31.83350        -0.26934
C          5.65684        33.18338        -0.42654
C          8.24978        27.57883        -0.09116
C          8.24698        28.96788         0.00188
C          7.02375        29.72799        -0.03308
C          8.24434        31.75392         0.55842
C          6.99754        31.09604         0.16222
C          8.25693        33.04523         1.02664
C          6.58319        34.13264         0.16676
C          8.30492        35.97429         0.24520
C          7.11741        35.29707        -0.30501
C          8.34863        37.38527         0.01709
C         10.77492        23.36542        -0.06380
C         10.71986        24.73466        -0.36302
C          9.50873        25.45036        -0.15722
C         10.70799        27.56816        -0.35683
C          9.47310        26.85176        -0.20952
C         10.72877        28.97745        -0.13144
C          9.50465        29.66981         0.08579
C         10.74185        31.71197         0.63554
C          9.51149        31.05205         0.41408
C         10.78014        33.11466         1.08359
C          9.45456        33.88247         1.16732
C         10.69719        36.03833         1.01439
C          9.41189        35.31170         0.82436
C         10.70821        37.53062         0.73792
C          9.47124        38.18304         0.25314
C         10.72949        40.29229        -0.01575
C          9.51669        39.56764        -0.03733
C         10.78384        41.69582        -0.21797
C         13.63526        19.35409         0.83291
C         13.42720        20.61434         0.15831
C         12.22815        21.30101         0.34518
C         13.14069        23.24024        -1.04473
C         11.94181        22.53868        -0.36456
C         13.08353        24.72651        -1.27414
C         11.89067        25.47036        -0.80451
C         13.12500        27.66653        -0.96705
C         11.89536        26.86462        -0.72526
C         13.20356        29.02076        -0.36542
C         11.97275        29.68389        -0.05800
C         13.21956        31.73754         0.48972
C         11.97523        31.05107         0.34403
C         13.22068        33.12637         0.80923
C         12.02902        33.86648         0.91301
C         13.17418        35.98288         0.56198
C         12.00005        35.29907         0.88498
C         13.16218        37.39052         0.13674
C         11.96660        38.19762         0.36594
C         13.23352        40.26627        -0.01574
C         11.97694        39.55548         0.08116
C         13.21360        41.68027        -0.10006
C         11.99868        42.39155        -0.24648
C         13.20676        44.63075        -0.02909
C         12.01821        43.87353        -0.59681
C         13.17046        45.94568         0.27248
C         16.37740        15.34201         1.72111
C         16.20377        16.62665         1.20153
C         15.00968        17.35906         1.34460
C         15.84399        19.08419        -0.23790
C         14.80446        18.61629         0.71310
C         15.79085        20.47144        -0.85206
C         14.52352        21.24373        -0.54142
C         15.64479        23.35168        -1.16329
C         14.45223        22.58522        -0.92412
C         15.66589        24.72786        -1.38521
C         14.38292        25.46990        -1.51050
C         15.69936        27.58257        -0.91978
C         14.41522        26.95967        -1.31241
C         15.70070        28.93408        -0.40778
C         14.44195        29.65106        -0.18681
C         15.68042        31.65463         0.54721
C         14.46643        31.02728         0.28611
C         15.77431        33.03339         1.15271
C         14.48094        33.82880         1.07281
C         15.75257        35.96489         0.43530
C         14.47122        35.33209         0.81375
C         15.80273        37.35515        -0.20330
C         14.48141        38.11956        -0.15879
C         15.68814        40.26215         0.36505
C         14.47308        39.57119         0.04541
C         15.71401        41.67944         0.37630
C         14.50580        42.39335        -0.09546
C         15.71021        44.58468         0.43695
C         14.49390        43.89395        -0.03296
C         15.66470        45.94779         0.60687
C         14.37011        46.70007         0.80524
C         15.63744        48.86450         0.40669
C         14.45705        48.15498         0.39367
C         15.72523        50.27394         0.17355
C         19.05947        11.32297         2.59034
C         18.81277        12.52620         1.86658
C         17.75431        13.38725         2.20496
C         18.55503        14.98498         0.51052
C         17.56571        14.57825         1.48924
C         18.38786        16.33011        -0.07209
C         17.48706        17.28542         0.71895
C         18.36160        19.13309        -0.77203
C         17.17247        18.43094        -0.27658
C         18.44804        20.61925        -0.53881
C         17.04890        21.28374        -0.50327
C         18.11127        23.35913        -1.48153
C         16.94078        22.71404        -0.87651
C         18.16127        24.76648        -1.61283
C         16.90414        25.46345        -1.40587
C         18.19910        27.46100        -0.78325
C         16.88353        26.85808        -1.10361
C         18.21232        28.84240        -0.19398
C         16.91246        29.53077        -0.04900
C         18.25298        31.64653         0.52023
C         16.92520        30.88557         0.49761
C         18.17686        33.13367         0.52632
C         16.99477        33.81024         0.66935
C         18.18573        36.00277         0.17307
C         16.92679        35.25875         0.47452
C         18.20715        37.45293         0.42072
C         16.97261        38.14147         0.33943
C         18.09310        40.17884         1.10661
C         16.89473        39.50885         0.57928
C         18.07086        41.69976         1.21749
C         16.88484        42.41891         0.69852
C         18.14439        44.53603         0.98142
C         16.92571        43.82732         0.64321
C         18.14314        45.92202         1.02818
C         16.94157        46.67112         0.64260
C         18.14299        48.94904         0.85397
C         16.94183        48.15988         0.51486
C         18.15639        50.32303         0.70884
C         16.91138        51.02284         0.27910
C         17.76130        53.40086         0.10404
C         16.82689        52.38133        -0.17869
C         18.06676        54.61313        -0.50901
C         21.47209         7.09757         3.61690
C         20.89784         8.14043         2.80359
C         20.33338         9.32339         3.18646
C         20.81140        10.64215         1.03293
C         20.05474        10.40712         2.24646
C         20.43032        11.76645         0.28441
C         19.61807        12.83261         0.72040
C         20.67160        14.66540        -0.84102
C         19.57101        14.13289         0.07414
C         20.69136        16.13804        -1.25088
C         19.45291        16.93062        -0.95438
C         20.67590        19.04166        -1.62147
C         19.50799        18.41325        -1.09881
C         20.50660        20.44460        -2.07432
C         19.33097        21.19172        -1.62702
C         20.81860        23.52082        -2.41120
C         19.04473        22.46898        -2.07892
C         20.66992        24.83803        -1.88807
C         19.42860        25.46702        -1.71967
C         20.68708        27.66313        -1.20672
C         19.38627        26.99105        -1.60431
C         20.69635        28.95886        -0.73811
C         19.46214        29.63754        -0.31734
C         20.69488        31.77235        -0.23744
C         19.45906        30.97767        -0.03993
C         20.69320        33.21621         0.10041
C         19.48018        33.85059         0.73000
C         20.72846        36.01570         0.62665
C         19.49011        35.28840         0.29237
C         20.68613        37.39504         0.80279
C         19.42565        38.11150         0.72243
C         20.58487        40.19538         1.34474
C         19.39629        39.49709         1.03455
C         20.53703        41.63158         1.52248
C         19.37087        42.38292         1.32911
C         20.58271        44.53621         1.35716
C         19.38123        43.81719         1.25779
C         20.64399        45.95232         1.22164
C         19.36574        46.67945         1.31543
C         20.67815        48.80551         0.88775
C         19.37653        48.19942         1.20867
C         20.68519        50.19426         0.60173
C         19.47446        50.95738         0.72966
C         20.72486        53.00291         0.13756
C         19.61758        52.34348         0.70724
C         20.62024        54.41446        -0.30762
C         19.35776        55.26033        -0.28349
C         20.74452        57.36540        -0.27677
C         19.47379        56.62155        -0.43147
C         20.86278        58.78297        -0.60775
C         24.02524         4.43884         3.83806
C         22.91468         5.23318         4.06863
C         23.40684         6.54528         1.94978
C         22.57701         6.35233         3.23869
C         23.42905         7.95880         1.36370
C         22.21714         8.62171         1.11791
C         23.25787        10.61919         0.20355
C         22.06510         9.95309         0.68983
C         23.25832        11.92930        -0.33316
C         22.10402        12.64667        -0.73628
C         23.22387        14.73567        -1.38217
C         22.01350        14.03035        -0.80231
C         23.20931        16.24916        -1.42769
C         21.97040        16.91293        -1.44069
C         23.14653        18.99836        -2.06256
C         21.92486        18.32749        -1.71099
C         23.12029        20.42629        -2.49432
C         21.84838        21.24248        -2.45172
C         23.18616        23.38951        -1.97849
C         21.93153        22.69300        -2.21234
C         23.20477        24.75274        -1.75602
C         21.93194        25.48620        -1.34051
C         23.21292        27.62968        -1.18740
C         21.95232        26.98654        -1.70100
C         23.20934        29.05586        -0.96357
C         21.94718        29.71351        -0.64096
C         23.21346        31.71669         0.07232
C         21.98353        31.05176        -0.30519
C         23.12020        33.04621         0.71661
C         21.94892        33.89801         0.48430
C         23.15542        35.93465         1.22568
C         21.94253        35.24985         0.81070
C         23.11568        37.33704         1.39406
C         21.88613        38.09333         1.20069
C         23.01165        40.13723         2.09710
C         21.82055        39.46786         1.45714
C         23.06510        41.62667         1.83858
C         21.77809        42.33927         1.86144
C         23.10836        44.53733         1.53347
C         21.82170        43.85884         1.75568
C         23.12175        45.86137         1.09096
C         21.86696        46.61623         1.06555
C         23.07422        48.68691         0.41576
C         21.86652        48.04324         0.83140
C         23.09689        50.05856         0.17681
C         21.91124        50.85123         0.28726
C         23.15338        52.94722        -0.29441
C         21.91201        52.25575        -0.02706
C         23.20172        54.31359        -0.39722
C         21.95689        55.09726        -0.53775
C         23.29422        57.26446        -0.66141
C         22.04857        56.57317        -0.30123
C         23.33734        58.63940        -0.79120
C         22.10271        59.41313        -0.73393
C         23.42933        61.45878        -1.03690
C         22.19346        60.82857        -0.89932
C         24.99821         4.83588         2.90336
C         25.92953         6.62944         1.57672
C         24.81512         5.99870         2.13246
C         25.88267         7.94204         1.03724
C         24.60800         8.61491         0.95069
C         25.74598        10.54758        -0.01236
C         24.53854         9.93522         0.38550
C         25.71362        11.88507        -0.62531
C         24.50650        12.71240        -0.40797
C         25.76788        14.76656        -1.31491
C         24.50610        14.14679        -0.82467
C         25.70876        16.18171        -1.71132
C         24.43806        16.92336        -1.70494
C         25.64135        19.03781        -2.35711
C         24.39485        18.31972        -2.04772
C         25.69352        20.41987        -2.47809
C         24.42250        21.18363        -2.62010
C         25.71179        23.44577        -2.36540
C         24.41579        22.69531        -2.46795
C         25.75604        24.79887        -1.76049
C         24.47716        25.52601        -1.82915
C         25.73917        27.59831        -0.88680
C         24.50037        27.00546        -1.45489
C         25.74200        28.92682        -0.41273
C         24.54291        29.76407        -0.62211
C         25.66820        31.67868         0.55811
C         24.44719        31.07262         0.04078
C         25.64847        32.97711         1.03205
C         24.38360        33.71571         1.19450
C         25.60639        35.83111         1.60865
C         24.39233        35.19303         1.34823
C         25.54596        37.24562         2.14071
C         24.32963        38.04141         1.71245
C         25.52239        40.15867         2.17007
C         24.32307        39.41617         1.86394
C         25.39356        41.52445         2.38236
C         24.24043        42.31648         2.00983
C         25.66382        44.48703         1.24713
C         24.34642        43.80221         1.81162
C         25.53684        45.75073         0.49048
C         24.33467        46.45613         0.57440
C         25.48915        48.47124        -0.45563
C         24.23036        47.82914         0.03242
C         25.62917        49.96703        -0.25736
C         24.29404        50.70618        -0.48348
C         25.63546        52.82983        -0.73615
C         24.43145        52.17552        -0.07212
C         25.78592        54.29563        -0.49534
C         24.49526        55.04489        -0.42392
C         25.83351        57.13065        -1.16395
C         24.48518        56.44846        -0.93509
C         25.81308        58.58664        -1.06190
C         24.61767        59.30795        -0.99744
C         24.62030        60.73353        -1.06901
C         27.05777         8.59331         0.62118
C         28.22331        10.61653        -0.21083
C         27.01341         9.90305         0.10769
C         28.23871        11.91010        -0.70724
C         26.96077        12.57390        -1.04809
C         28.17813        14.52589        -1.97880
C         26.92975        14.04162        -1.30853
C         28.16255        16.02311        -2.24157
C         26.88416        16.79139        -2.10979
C         28.22552        18.95252        -2.47516
C         26.88348        18.22407        -2.48827
C         28.27569        20.45230        -2.51926
C         26.96026        21.18580        -2.69291
C         28.26306        23.40152        -2.18993
C         26.98660        22.69408        -2.54111
C         28.21039        24.77140        -1.58472
C         26.93959        25.45040        -1.42046
C         28.11857        27.36806        -0.32365
C         26.94419        26.81049        -0.86542
C         28.03249        28.62162         0.56716
C         26.89061        29.53628         0.18469
C         28.14227        31.52199         0.99333
C         26.90673        30.88624         0.58340
C         28.14746        32.91845         1.28032
C         26.85775        33.60243         1.66666
C         28.06626        35.82547         1.76052
C         26.86141        35.12677         1.60791
C         28.02923        37.28082         1.93476
C         26.85493        37.98809         2.04662
C         28.16072        40.22184         2.03939
C         26.83142        39.45858         2.30211
C         28.16215        41.56871         1.43069
C         27.21216        42.48575         1.74588
C         27.87197        44.06947        -0.12562
C         26.82262        43.61062         0.88248
C         27.86865        45.50625        -0.46283
C         26.72508        46.28785        -0.20144
C         27.94932        48.38951        -0.74031
C         26.74844        47.70066        -0.48290
C         28.02269        49.79589        -0.90750
C         26.73270        50.51060        -1.20690
C         28.15650        52.70768        -1.11811
C         26.82700        52.03674        -1.16737
C         28.20914        54.11144        -1.07999
C         27.05060        54.95107        -0.94186
C         27.07673        56.32705        -1.06208
C         29.43281        12.67962        -0.83016
C         30.63407        14.73524        -1.26791
C         29.43449        13.97777        -1.32509
C         30.69293        16.08799        -1.57845
C         29.47508        16.76562        -2.09675
C         30.65677        18.98199        -1.57438
C         29.39389        18.23781        -1.87694
C         30.70414        20.44458        -1.74370
C         29.47387        21.18188        -2.01755
C         30.71608        23.29165        -1.76889
C         29.45378        22.55672        -1.92736
C         30.68189        24.77575        -1.50899
C         29.37906        25.42285        -1.24368
C         30.56495        27.22691        -0.05025
C         29.36028        26.67870        -0.51730
C         30.48736        28.28680         1.03165
C         29.36504        29.34410         0.82072
C         30.57510        31.54920         1.37444
C         29.38228        30.73261         1.08129
C         30.58434        32.97748         1.35073
C         29.33773        33.67972         1.41482
C         30.57160        35.77799         1.83113
C         29.34008        35.10550         1.67957
C         30.58082        37.20834         2.20388
C         29.31091        37.99492         2.18322
C         30.56729        40.08304         1.50313
C         29.38280        39.43248         1.84548
C         30.56029        41.34353         0.82035
C         29.23692        41.92221         0.46750
C         30.40750        43.87991        -0.76890
C         29.12960        43.23623        -0.27916
C         30.41553        45.33463        -1.29090
C         29.07492        46.09880        -1.09087
C         30.45715        48.30650        -1.00377
C         29.15012        47.61694        -1.09814
C         30.47472        49.69422        -0.94926
C         29.26587        50.47186        -1.02151
C         29.31095        51.89294        -1.10644
C         31.88613        16.83846        -1.39259
C         33.13784        18.96221        -1.31965
C         31.92958        18.23265        -1.45588
C         33.15392        20.36358        -1.29303
C         31.90564        21.07575        -1.48121
C         33.18938        23.25046        -1.06802
C         31.90887        22.53352        -1.30483
C         33.21027        24.73046        -1.28252
C         31.91364        25.42275        -1.04106
C         33.09785        27.40394        -0.22921
C         31.83834        26.64739        -0.42038
C         33.02392        28.50477         0.73441
C         31.85144        28.81753         1.31587
C         33.05549        31.59126         1.37333
C         31.83702        30.98580         1.68078
C         33.07161        33.01230         1.31852
C         31.82363        33.69547         1.44948
C         33.09622        35.77477         1.76515
C         31.83957        35.10642         1.66808
C         33.15003        37.22390         2.04739
C         31.87263        37.97656         2.17540
C         33.11561        40.11081         1.32617
C         31.86420        39.44725         1.83338
C         33.01382        41.39908         0.61533
C         31.74944        41.98814         0.42114
C         32.95448        44.05673        -0.39132
C         31.71208        43.23695        -0.38534
C         32.85640        45.44206        -0.57886
C         31.63671        46.12520        -0.81708
C         31.63336        47.51846        -0.84075
C         34.38297        21.09389        -1.12914
C         35.67507        23.20185        -0.83690
C         34.45660        22.47951        -1.05643
C         35.71475        24.58415        -0.68653
C         34.51695        25.40641        -0.99120
C         35.68200        27.37872         0.18925
C         34.47448        26.82111        -0.50809
C         35.54891        28.62412         0.77719
C         34.24848        29.34793         0.71852
C         35.58725        31.51465         0.98604
C         34.25338        30.81834         0.95778
C         35.58774        32.98692         1.18402
C         34.31063        33.70639         1.35751
C         35.62949        35.76551         1.62545
C         34.33634        35.09201         1.59922
C         35.68827        37.23829         1.62640
C         34.41315        37.98966         1.74738
C         35.57410        40.00884         0.72881
C         34.28288        39.23977         0.90636
C         35.48632        41.35355         0.38607
C         34.23281        42.04677         0.23878
C         34.18096        43.40443        -0.16020
C         36.91307        25.30655        -0.38558
C         38.23254        27.33455         0.02637
C         36.94216        26.64186         0.00979
C         38.51540        28.40592         0.83205
C         36.63101        29.36347         1.40399
C         38.09883        31.39186         1.75920
C         36.77881        30.72071         1.36455
C         38.05443        32.91533         1.55966
C         36.87175        33.63691         1.51485
C         38.09180        35.80545         1.37043
C         36.84234        35.07996         1.51605
C         38.08834        37.18399         1.08428
C         36.88506        37.92756         1.07949
C         36.80556        39.29085         0.76515
C         39.50754        29.44590         0.69144
C         40.52749        31.59065         1.02973
C         39.35044        30.75471         1.11027
C         40.52377        32.92830         1.28900
C         39.29161        33.65546         1.48078
C         39.29396        35.04469         1.36964
O         28.82614        46.85883        -2.31600
O         30.89685        24.23165        -2.87208
O         27.79057        20.85330        -3.83871
O         25.30093        44.53567         2.63906
O         32.64162        37.62886         3.36689
O         20.92451        20.74427        -3.43408
O         35.73911        32.38474        -0.18432
O         27.79243        23.33718        -3.57473
O         19.28354        47.54092         2.52194
O         24.94222        23.40647        -3.62703
O         25.31012        54.80694         0.80263
O         18.23673        16.34699        -1.51991
O          7.07342        33.67068         1.40914
O         33.83576        27.72458        -1.45268
O         31.86548        29.75701         2.35147
O         29.65938        18.61935        -0.49684
O         34.04343        25.20920        -2.37159
O         13.65988        27.67196        -2.34082
O         21.03640         7.91639         1.41152
O         29.88055        37.53794         3.46441
O         21.16989        54.62573        -1.67270
O         13.63809        37.64025        -1.25969
O         23.72414        20.68832        -3.80926
O         10.68565        37.01449         2.11672
O         21.47434        56.98962         0.97067
O         24.99089        56.60243        -2.28828
O         17.80605        40.85523         2.38613
O         13.54522        25.06581        -2.63007
O         24.50896        47.98877        -1.42853
O         27.64512        39.98730         3.38798
O         32.31138        22.91937         0.07363
O         20.55418        32.82021        -1.29671
O         18.91919        35.54469        -1.01980
O         16.15646        18.03421        -1.24321
O         28.19924        13.82090        -3.32450
O         26.46185        42.25904         2.90909
O         34.10266        30.27332        -0.42267
O         20.95752        11.89157        -0.99959
O         28.87480        41.96012        -0.95039
O         18.40784        27.62779         0.64226
O         12.20119        22.48327        -1.82976
O         24.55511        26.55425        -2.89469
O         17.19250        47.34648        -0.70816
O         26.71170        43.28412        -0.54848
O         16.96988        22.25292         0.58323
O         18.58733        53.12012         1.21402
O         20.39648        15.08781        -2.23382
O         19.76193        23.00668        -3.16253
O         31.11113        43.01413        -1.71093
O         25.88125        52.59436        -2.15375
O         14.73385        43.20447        -1.32455
O         10.18110        33.47487         2.38364
O         17.76404        31.00351         1.72857
O         26.14036        11.85091        -2.04888
O         24.03379        29.77047        -1.98403
O         24.56405        13.80397         0.59955
O         18.13732        17.75429         1.83067
O         35.30031        37.96709         2.88231
O         27.68549        18.43140        -3.70029
O         14.44077        34.77131         2.18915
O         21.68945        43.19169         3.05873
O         37.67003        28.59498         1.95136
O         29.00284        16.34655        -3.39632
O         23.48517        33.03433         2.15112
O         32.73664        40.21427         2.72900
O         23.22333        14.33709        -2.79265
H         22.33933        14.57632        -3.15743
O         19.10319        20.84283         0.73557
H         18.51309        21.43760         1.25826
O         15.84991        20.33760        -2.29208
H         15.90377        19.37089        -2.49491
O         22.77420         5.69555         0.95099
H         21.87396         6.06328         0.79976
O         27.58442        28.08375         1.86733
H         28.35707        27.58745         2.24146
O         14.16798        46.73086         2.27122
H         14.85860        47.30804         2.66120
O         30.63853        45.25382        -2.71164
H         29.96261        44.66171        -3.10155
O         19.68173        33.86003         2.17098
H         19.34036        33.02157         2.54964
O         21.86009        25.43744         0.11318
H         21.65404        24.52018         0.38923
O         26.10968        50.08950         1.09814
H         25.69168        50.87694         1.52986
O         33.91163        38.72382        -0.41510
H         33.95918        39.46413        -1.05759
O         22.76282        40.01337         3.54034
H         23.54985        40.35481         4.01660
O         16.11556        37.13638        -1.60377
H         15.25836        37.04957        -2.08144
O         38.26657        31.19109         3.19244
H         38.31036        30.21961         3.33831
O         24.65663        52.24356         1.36595
H         24.83011        53.19754         1.58124
O         16.03059        32.81640         2.57183
H         15.68529        33.60896         3.04530
O         26.91764        14.01797        -3.94863
H         26.41831        13.19708        -3.69937
O         30.13023        27.54846         2.26646
H         30.36313        28.14165         3.01547
O         21.92834        27.09961        -3.15414
H         22.85497        26.93512        -3.47403
O         12.09686        43.97031        -2.03197
H         13.00002        43.66460        -2.28444
O         25.32787        37.07944         3.59206
H         26.05019        36.51398         3.94036
O         23.98855        50.68759        -1.89345
H         23.97361        49.73772        -2.16741
O         19.12208        27.45077        -2.96261
H         19.95459        27.32216        -3.47804
O         26.71319        33.32005         3.11035
H         27.53928        33.61272         3.55151
O         26.43878        50.11852        -2.56184
H         25.89079        50.83906        -2.95614
H          5.02243        31.19455        -0.69817
H          4.79552        33.55644        -1.00189
H          7.29919        27.02581        -0.08292
H          6.09797        29.20161        -0.31200
H          6.67619        35.75874        -1.20139
H          7.44414        37.86379        -0.38769
H          9.90841        22.89422         0.42378
H          8.58847        24.88977         0.06212
H          8.58429        40.08767        -0.30431
H          9.84249        42.25186        -0.34247
H         12.82522        18.97614         1.47534
H         11.48319        20.91569         1.05703
H         11.05934        44.35523        -0.28118
H         12.21360        46.49023         0.23250
H         15.56429        14.86501         2.29270
H         14.18609        16.93086         1.93946
H         13.50944        48.70099         0.26329
H         14.79990        50.80543        -0.09754
H         18.45536        11.13360         3.48973
H         17.06102        13.11540         3.01391
H         15.96441        52.62938        -0.81716
H         17.36043        55.08671        -1.20747
H         21.01015         6.87969         4.59410
H         20.10934         9.49833         4.24882
H         18.56407        57.21728        -0.60328
H         19.94382        59.36859        -0.76286
H         24.21146         3.56357         4.47566
H         22.25365         5.00519         4.91832
H         23.46590        62.55352        -1.12871
H         21.27134        61.42675        -0.88144
H         25.97705         4.33345         2.89390
H         26.91156         6.13954         1.67071
H         26.76999        59.13002        -1.04286
H         25.57832        61.25821        -1.19337
H         28.02288         8.07283         0.70673
H         29.18128        10.12022         0.00678
H         29.19079        54.60139        -1.17203
H         28.03007        56.83580        -1.27294
H         30.37773        12.24641        -0.46751
H         31.52958        14.24878        -0.85135
H         31.43983        50.21895        -0.88261
H         30.29696        52.38202        -1.11002
H         32.81124        16.28858        -1.16187
H         34.08097        18.40736        -1.20616
H         33.77120        46.04697        -0.47563
H         32.58288        48.04572        -0.65675
H         35.31359        20.50999        -1.05865
H         36.60397        22.62592        -0.70551
H         36.41091        41.91508         0.18256
H         35.11878        43.97033        -0.26392
H         37.86756        24.76202        -0.45074
H         38.95830        27.04058        -0.74746
H         39.03689        37.68280         0.83451
H         37.73152        39.83316         0.51838
H         40.44905        29.18879         0.17734
H         41.47590        31.09837         0.76428
H         41.46236        33.49906         1.23473
H         40.25175        35.56734         1.22658
