         429
 CSIRO Nanostructure Databank - Neutral Graphene Oxide Data Set
C          1.64336         2.22300        -2.67879
C          1.52827         3.50241        -2.11239
C          2.87493         1.59405        -2.76023
C          2.66466         4.19431        -1.65753
C          1.34100         5.97661        -0.53823
C          1.28614         7.19530         0.11361
C          2.57540         5.50341        -1.02348
C          2.42150         8.03193         0.13112
C          1.21761        11.12253        -0.18291
C          1.30100        12.40699        -0.71395
C          2.38382        10.38459         0.01929
C          2.55689        13.00948        -0.87730
C          1.73024        14.78047        -2.46986
C          1.93206        15.87459        -3.25910
C          2.52499        14.49618        -1.20533
C          3.08214        16.71840        -3.13540
C          3.32842        17.82846        -3.96350
C          4.04804         2.25337        -2.29740
C          3.94130         3.58896        -1.79351
C          5.30033         1.59852        -2.28772
C          5.11771         4.28017        -1.34775
C          3.75047         6.29627        -0.84424
C          3.66085         7.65387        -0.38964
C          5.03986         5.67392        -0.96837
C          4.85932         8.56826        -0.69843
C          3.67501        10.86608        -0.32561
C          3.72675        12.26518        -0.61641
C          4.88567        10.05534        -0.28425
C          5.01995        12.94800        -0.43728
C          3.89846        15.18136        -1.23724
C          4.12230        16.33424        -2.16919
C          5.11300        14.44193        -0.74625
C          5.48593        16.84474        -2.38726
C          4.53767        18.51620        -3.92346
C          5.65465        18.02876        -3.16375
C          6.44130         2.23016        -1.75174
C          6.33295         3.58345        -1.29969
C          7.67859         1.52460        -1.63192
C          7.49122         4.18444        -0.55618
C          6.20549         6.40730        -0.59341
C          6.15409         7.82380        -0.40313
C          7.46427         5.70071        -0.49608
C          7.32762         8.53599        -0.07940
C          6.14284        10.70565        -0.26245
C          6.24751        12.14743        -0.34858
C          7.36646         9.95511        -0.06489
C          7.48333        12.81753        -0.34664
C          6.44218        14.96929        -1.06766
C          6.58495        16.22560        -1.75396
C          7.57894        14.22454        -0.69805
C          7.86352        16.84683        -1.82984
C          6.90829        18.67390        -3.16984
C          8.01098        18.12628        -2.46833
C          8.86406         2.15545        -1.19795
C          8.81476         3.66933        -1.10249
C         10.06192         1.46372        -1.07760
C          9.98850         4.33376        -0.42226
C          8.62936         6.35728        -0.16357
C          8.53726         7.76119         0.27863
C          9.91158         5.66514        -0.12034
C          9.79375         8.50020         0.68567
C          8.62636        10.64655         0.11784
C          8.70319        12.08501        -0.10514
C          9.78387         9.95280         0.48072
C          9.92616        12.76632        -0.05495
C          8.85965        14.86447        -0.75610
C          8.98576        16.20177        -1.24484
C         10.02071        14.17135        -0.32310
C         10.23997        16.86826        -1.19822
C          9.25567        18.79423        -2.37838
C         10.35912        18.20762        -1.71568
C         11.26963         2.07320        -0.50532
C         11.22905         3.56805        -0.17378
C         12.58750         1.45135        -0.61316
C         12.50871         4.29800        -0.07904
C         11.18198         6.48579        -0.09954
C         11.11483         7.81118         0.61529
C         12.45009         5.71817         0.17505
C         12.26414         8.47378         0.95009
C         11.10836        10.59064         0.49983
C         11.18592        12.06267         0.22412
C         12.18291         9.93147         1.35223
C         12.36359        12.82894         0.63776
C         11.26913        14.84925        -0.23209
C         11.36893        16.21387        -0.63289
C         12.42917        14.17972         0.31479
C         12.60392        16.91789        -0.49869
C         11.58649        18.89305        -1.56217
C         12.70044        18.28189        -0.94091
C         13.74677         2.13780        -0.24616
C         13.70070         3.58478        -0.08065
C         14.98292         1.44262        -0.05707
C         14.97025         4.31746         0.02733
C         13.57729         6.40333         0.59240
C         13.55211         7.80561         0.95635
C         14.89350         5.75418         0.47942
C         14.72301         8.50798         1.26030
C         13.51149        10.65908         1.25824
C         13.48662        12.16187         1.39402
C         14.71287         9.96975         1.36188
C         14.82056        12.81566         1.13591
C         13.67096        14.90015         0.45403
C         13.74589        16.26286         0.04854
C         14.85706        14.19734         0.84420
C         14.98024        16.97166         0.15602
C         13.92070        18.98380        -0.76554
C         15.05480        18.35619        -0.21865
C         16.18892         2.07620         0.30565
C         16.24866         3.55227         0.20925
C         17.35921         1.38205         0.64920
C         17.44804         4.27150         0.85576
C         15.94635         6.29992         1.40739
C         15.99521         7.81691         1.35502
C         17.28181         5.62761         1.34525
C         17.17217         8.48056         1.55543
C         15.96088        10.67736         1.51709
C         16.01987        12.08151         1.36941
C         17.18190         9.93161         1.98834
C         17.28881        12.78113         1.41357
C         16.10745        14.89971         0.90338
C         16.14668        16.29712         0.61134
C         17.29912        14.20387         1.24629
C         17.36529        17.01853         0.76538
C         16.28554        19.05915        -0.05015
C         17.42418        18.42934         0.45107
C         18.53713         2.04297         1.13240
C         18.51987         3.43461         1.39445
C         19.75369         1.31525         1.30835
C         19.62120         4.09783         2.07517
C         18.35394         6.29011         2.15319
C         18.44745         7.72484         1.63823
C         19.68399         5.57630         2.11046
C         19.71997         8.45067         1.83167
C         18.50520        10.63108         1.72431
C         18.51625        12.07847         1.56920
C         19.68047         9.93615         1.80601
C         19.76048        12.77068         1.57749
C         18.51736        14.93530         1.40626
C         18.51245        16.33988         1.23064
C         19.76185        14.22061         1.57862
C         19.70897        17.12351         1.55038
C         18.66549        19.14098         0.60478
C         19.79940        18.53312         1.11994
C         20.96262         1.94730         1.62312
C         20.95988         3.33035         2.13908
C         22.21220         1.30988         1.46989
C         22.19376         4.12173         2.12622
C         20.86614         6.24533         2.28784
C         20.83373         7.73481         2.59385
C         22.15297         5.55447         2.28377
C         22.16244         8.43849         2.45581
C         21.02057        10.57552         1.59087
C         21.00366        12.07592         1.71125
C         22.11183         9.92837         2.44392
C         22.23151        12.75091         1.78874
C         20.97446        14.90333         1.61681
C         21.00715        16.35237         1.75715
C         22.26213        14.18415         1.33222
C         22.28454        17.07591         1.63759
C         21.06123        19.19273         1.23839
C         22.25469        18.51695         1.51457
C         23.41789         2.01371         1.64914
C         23.40732         3.43740         1.91353
C         24.66340         1.35558         1.49622
C         24.65171         4.13268         2.02813
C         23.34384         6.28901         2.38457
C         23.35992         7.74116         2.45236
C         24.62416         5.55643         2.43733
C         24.63797         8.46775         2.46212
C         23.37114        10.70383         2.64888
C         23.45506        12.10698         2.14933
C         24.63689         9.91498         2.80146
C         24.67416        12.80965         2.15013
C         23.50198        14.93757         1.72642
C         23.47668        16.36724         1.75162
C         24.68652        14.22041         1.90883
C         24.69586        17.12828         2.21119
C         23.51052        19.22010         1.51962
C         24.70686        18.57018         1.75314
C         25.87312         2.04855         1.57698
C         25.86279         3.45774         1.88006
C         27.09980         1.37291         1.25478
C         27.14000         4.19839         1.94186
C         25.91889         6.35595         2.35334
C         25.85647         7.83181         2.30134
C         27.12411         5.66836         1.87679
C         27.11738         8.55411         2.16905
C         25.94451        10.67091         2.79176
C         25.92554        12.21297         2.80770
C         27.14998         9.93553         2.35535
C         27.23161        12.86679         2.36124
C         25.99061        14.93632         1.66763
C         25.98862        16.40663         1.96435
C         27.23762        14.22932         2.13094
C         27.17584        17.09796         1.93944
C         25.96168        19.23749         1.66859
C         27.16775        18.55684         1.79502
C         28.28578         2.05144         1.06887
C         28.39303         3.48184         1.42421
C         29.48041         1.41503         0.61628
C         29.45279         4.28212         0.79993
C         28.25747         6.38428         1.51478
C         28.30299         7.82815         1.70660
C         29.41106         5.69919         0.94910
C         29.49022         8.51490         1.43154
C         28.43655        10.65142         2.39695
C         28.48464        12.13447         2.36231
C         29.67521         9.87670         1.95929
C         29.69555        12.79901         2.24818
C         28.45974        15.00110         2.13525
C         28.43996        16.38283         1.99093
C         29.72642        14.27374         2.36777
C         29.70735        17.19529         2.17813
C         28.40063        19.21957         1.50997
C         29.61849        18.56605         1.53790
C         30.58020         2.13010         0.17052
C         30.50881         3.59957         0.10361
C         31.80743         1.37074        -0.07222
C         31.52049         4.39198        -0.48381
C         30.48225         6.49223         0.46585
C         30.58607         7.87710         0.73704
C         31.50420         5.84566        -0.34757
C         31.78606         8.58938         0.41796
C         30.92557        10.63629         1.62624
C         30.96510        12.11663         1.89363
C         31.77242        10.08942         0.48909
C         32.08272        12.92614         1.32299
C         31.04483        15.02501         2.13045
C         30.94732        16.43733         1.77774
C         32.19778        14.25553         1.58315
C         32.15066        17.19514         1.44754
C         30.78053        19.20616         1.02081
C         32.01235        18.57434         0.92966
C         32.74404         1.71127        -1.00748
C         32.61428         3.88079        -1.23870
C         34.10346         1.28752        -1.21436
C         33.91036         4.41674        -1.22128
C         32.82714         6.58233        -0.59528
C         32.93812         7.94717        -0.07499
C         34.04886         5.79756        -0.83359
C         34.19601         8.60108        -0.18549
C         33.12500        10.74515         0.43117
C         33.10291        12.25350         0.41565
C         34.26557        10.02272         0.06418
C         34.46392        12.88899         0.49677
C         33.55058        14.96527         1.50173
C         33.46714        16.47550         1.26082
C         34.57215        14.25354         0.64496
C         34.48847        17.12736         0.40335
C         33.16631        19.22470         0.40939
C         34.35636        18.55301         0.14313
C         35.09464         2.14319        -1.67351
C         35.08900         3.62441        -1.59471
C         36.33970         1.49320        -2.04215
C         36.31038         4.28077        -1.64185
C         35.28068         6.43734        -0.75372
C         35.38058         7.86118        -0.51698
C         36.48480         5.62482        -1.03202
C         36.62310         8.53424        -0.65498
C         35.53266        10.67066        -0.13512
C         35.63973        12.09030         0.18992
C         36.67597         9.95705        -0.55439
C         36.89311        12.86221        -0.34033
C         35.68275        14.97887         0.06822
C         35.54679        16.41223        -0.11906
C         36.73532        14.29867        -0.55871
C         36.43795        17.07975        -1.14221
C         35.47338        19.25277        -0.44049
C         36.54081        18.57653        -0.98438
C         37.48243         2.16293        -2.34841
C         37.50639         3.66562        -2.32462
C         38.67025         1.48682        -2.84365
C         38.85328         4.23617        -1.95976
C         37.83521         6.28956        -0.99846
C         37.94015         7.77856        -0.57085
C         38.98305         5.59259        -1.65986
C         39.11804         8.52015        -1.22821
C         37.83858        10.68343        -1.06738
C         37.83282        12.07428        -1.13559
C         38.96660         9.94400        -1.60894
C         38.76249        12.81279        -1.99731
C         37.79280        15.01105        -1.25991
C         37.75012        16.38212        -1.34881
C         38.89659        14.27324        -1.85854
C         38.99250        17.15263        -1.69012
C         37.62161        19.24679        -1.64843
C         38.72274        18.57284        -2.13337
C         39.87591         2.08653        -2.82223
C         40.08838         3.38452        -2.09138
C         41.26964         4.16791        -2.58571
C         40.20918         6.26220        -1.91740
C         40.28022         7.74030        -1.83504
C         41.31153         5.52430        -2.45469
C         41.13457         8.45855        -2.78887
C         39.98930        10.57380        -2.31374
C         39.90996        12.01869        -2.63472
C         41.04749         9.80652        -2.92030
C         41.10229        12.80368        -2.98025
C         39.94786        14.93232        -2.49707
C         39.95848        16.38703        -2.56917
C         41.06515        14.16225        -3.00388
C         40.85877        17.09845        -3.32729
C         39.72699        19.23070        -2.91731
C         40.76483        18.52105        -3.46725
O          2.22476         9.23675         0.78701
O         40.35497         8.28703        -0.46219
O         31.79445         6.50239        -1.63865
O         19.39281         7.87355         0.51247
O         30.55423        14.72960         3.50707
O         29.33539        10.01262         3.36460
O         20.21965        16.86321         2.89806
O         15.18979         5.43645        -0.90543
O         22.38298        10.54614         3.74059
O         36.78152        12.42080         1.03834
O         17.30229         4.05113        -0.63085
O          3.78488        16.53574        -0.69863
O         32.37494         2.70351        -1.94116
O         20.10663         3.49419         3.31651
O         11.56506        11.03054        -0.81690
O         31.58168        11.12182         2.81478
O          4.96021        13.97992         0.62832
O         11.03452         2.58420         0.88540
O         38.72002        12.37481        -3.40674
O         28.16887         3.69772         2.85707
O          8.90173         7.94626         1.70786
O         37.38861         5.49144         0.15113
O         25.38005        10.14527         4.04762
O         25.42260         5.82737         3.64044
O         33.22123        17.16813         2.52404
O         37.33591         4.07992        -3.74737
H         36.56390         3.58853        -4.10282
O          1.74487        15.10817        -0.14334
H          2.11310        16.01566        -0.01870
O         17.06283         9.88972         3.45984
H         17.89056         9.50286         3.81883
O          8.87275         4.13611        -2.48548
H          9.76114         3.93444        -2.84614
O         11.71478        10.02509         2.72178
H         12.36856         9.58386         3.30261
O         15.40064         5.99141         2.74097
H         16.11369         6.18969         3.39746
O         24.56845        17.18310         3.67804
H         23.73644        17.66092         3.88416
O         25.81120        12.63218         4.19320
H         25.44914        11.86470         4.70013
O         13.19805        12.44985         2.82567
H         13.95680        12.10836         3.34648
O         21.39852        10.28003         0.19728
H         20.81486         9.56217        -0.13489
O         20.41162         7.85733         4.00196
H         21.19758         7.70402         4.57065
O         29.84362        17.42929         3.62197
H         30.03948        16.54943         4.02939
O         34.09218        14.79672         2.84088
H         33.75134        15.54661         3.38394
O         17.96703         6.39282         3.56611
H         18.73302         6.80126         4.04272
O         31.00280        10.50303        -0.72988
H         31.26525         9.89701        -1.45762
O          4.81860         8.69701        -2.17349
H          4.98843         7.80568        -2.54901
O         22.34096        14.10504        -0.15355
H         21.76885        13.35834        -0.43638
O         40.44739         2.97028        -0.70765
H         40.50890         3.78877        -0.16899
O         32.64428        12.61995        -0.94853
H         31.87202        12.02937        -1.14646
O         35.72333        16.89412        -2.42992
H         34.86221        17.35831        -2.35312
O         11.29623         6.88105        -1.52845
H         12.13773         7.37634        -1.63402
O         26.12099        14.87155         0.18149
H         26.89681        15.41883        -0.06763
O         38.21050         7.78294         0.85120
H         39.18912         7.74776         0.95957
O         39.70995        17.29926        -0.40106
H         40.54018        17.78748        -0.58860
O          7.38442         3.72483         0.82053
H          6.55487         4.08234         1.20015
H          0.74048         1.71085        -3.03971
H          0.53344         3.96281        -2.04284
H          2.95620         0.57724        -3.16997
H          0.43618         5.36041        -0.61794
H          0.35288         7.55783         0.56279
H          0.25099        10.69372         0.11021
H          0.38805        12.99326        -0.87973
H          0.83118        14.16916        -2.63872
H          1.21844        16.09582        -4.06818
H          2.53899        18.16154        -4.65358
H          5.37380         0.56608        -2.66029
H          4.67678        19.40957        -4.54853
H          7.69569         0.44855        -1.86331
H          7.03001        19.61992        -3.71707
H         10.09595         0.39415        -1.33889
H          9.36343        19.79552        -2.82100
H         12.65285         0.39585        -0.91666
H         11.67766        19.92462        -1.93374
H         14.97311         0.34536        -0.14197
H         13.98377        20.03607        -1.08036
H         17.35826         0.28302         0.61007
H         16.32993        20.12393        -0.32342
H         19.77444         0.25550         1.01287
H         18.70773        20.19447         0.28973
H         22.24608         0.25126         1.17268
H         21.10405        20.27373         1.03548
H         24.67208         0.27872         1.27238
H         23.51081        20.29774         1.29421
H         27.05305         0.29747         1.02700
H         25.97393        20.31284         1.43270
H         29.51232         0.31544         0.59921
H         28.35920        20.26334         1.16028
H         31.98517         0.49836         0.57429
H         30.67741        20.23288         0.63572
H         34.37065         0.23262        -1.04296
H         33.08985        20.29126         0.14896
H         36.33542         0.39303        -2.08730
H         35.45793        20.35342        -0.44280
H         38.55529         0.47068        -3.25230
H         37.53928        20.33403        -1.81052
H         40.76481         1.56610        -3.20924
H         42.15105         3.61578        -2.94295
H         42.22439         6.06347        -2.74463
H         41.84170         7.89657        -3.41337
H         41.72660        10.31780        -3.61687
H         42.04247        12.28363        -3.21294
H         41.97025        14.70461        -3.31249
H         41.64618        16.58126        -3.89390
H         39.61827        20.30563        -3.12461
H         41.51113        19.03552        -4.08855
