         204
 CSIRO Nanostructure Databank - Neutral Graphene Oxide Data Set
C        -11.04552         0.64370         0.84852
C         -9.84454         1.39395         0.53057
C         -8.70518         0.72563         0.01510
C         -7.44083         1.39204        -0.05645
C         -6.24318         0.70801        -0.43199
C         -4.99748         1.37557        -0.45422
C         -3.75663         0.64238        -0.78156
C         -2.43676         1.33781        -0.44317
C         -1.18129         0.71418        -1.03449
C         -0.02420         1.40112        -1.20652
C          1.26174         0.76913        -1.70929
C          2.50019         1.44871        -1.10632
C          3.72290         0.73561        -0.90938
C          4.93538         1.44755        -0.66543
C          6.14965         0.74349        -0.35450
C          7.37537         1.44374        -0.20649
C          8.54144         0.77651         0.21964
C          9.77297         1.50840         0.42957
C         10.93378         0.79647         0.86720
C         -9.78058         2.76296         0.82925
C         -8.55968         3.46798         0.71963
C         -7.37320         2.76883         0.31629
C         -6.13584         3.46497         0.21497
C         -4.96554         2.76763        -0.18140
C         -3.77822         3.57394        -0.62902
C         -2.48779         2.82676        -0.59595
C         -1.30944         3.61032        -0.92233
C         -0.00223         2.88986        -1.20645
C          1.25072         3.60361        -0.96497
C          2.47742         2.86050        -0.91984
C          3.70210         3.57765        -0.70765
C          4.94306         2.88160        -0.65650
C          6.15966         3.60300        -0.54915
C          7.46665         2.87133        -0.67438
C          8.64034         3.62379        -0.09235
C          9.78635         2.90777         0.29492
C         -8.48824         4.84218         1.03995
C         -7.27270         5.54497         0.95028
C         -6.08955         4.86933         0.52075
C         -4.85548         5.59333         0.43776
C         -3.68171         4.95444        -0.01788
C         -2.45592         5.66742        -0.07941
C         -1.25458         5.03024        -0.52235
C         -0.03576         5.73272        -0.58341
C          1.22800         5.01546        -0.79331
C          2.45733         5.70460        -0.66292
C          3.69348         5.00030        -0.61027
C          4.92620         5.71312        -0.47287
C          6.15749         5.00846        -0.44480
C          7.40054         5.73640        -0.25495
C          8.59934         5.02525        -0.05486
C         -7.21683         6.93157         1.29351
C         -6.02753         7.64221         1.22973
C         -4.82113         6.97938         0.80509
C         -3.61506         7.70379         0.71507
C         -2.42249         7.05069         0.29102
C         -1.20667         7.78017         0.17250
C         -0.03898         7.12949        -0.26712
C          1.18389         7.92908        -0.43414
C          2.48823         7.17207        -0.60556
C          3.73388         7.84702        -0.23927
C          4.92701         7.14361        -0.28661
C          6.18364         7.86204        -0.18795
C          7.37680         7.15719        -0.18340
C         -5.97036         9.04502         1.56868
C         -4.80761         9.74747         1.47283
C         -3.58727         9.11358         1.03585
C         -2.40642         9.82791         0.91137
C         -1.19264         9.20467         0.48374
C         -0.01439         9.94022         0.41469
C          1.23620         9.32019         0.09210
C          2.43183         9.97200         0.24968
C          3.73596         9.23416         0.34737
C          4.97573         9.99031        -0.05439
C          6.13878         9.31615        -0.21004
C        -11.03503        -0.71928         0.90715
C         -9.86919        -1.46510         0.51969
C         -8.79391        -0.72968        -0.19283
C         -7.57488        -1.45971        -0.66254
C         -6.37679        -0.61165        -1.15696
C         -5.07318        -1.41102        -1.27993
C         -3.78606        -0.67905        -1.15023
C         -2.54246        -1.43141        -1.52870
C         -1.23481        -0.72061        -1.42379
C          0.02826        -1.49101        -1.36457
C          1.27066        -0.75945        -1.59184
C          2.57533        -1.49089        -1.22373
C          3.75548        -0.70319        -0.84863
C          4.89620        -1.38525        -0.37327
C          6.11054        -0.66073        -0.13199
C          7.28984        -1.34206         0.29097
C          8.49929        -0.62135         0.48827
C          9.68318        -1.30536         0.93424
C         10.89622        -0.55275         1.10790
C         -9.79457        -2.83838         0.63158
C         -8.60589        -3.56051         0.29994
C         -7.33420        -2.78640         0.03866
C         -6.21628        -3.61092        -0.53292
C         -5.03603        -2.91905        -1.06373
C         -3.75120        -3.63493        -1.02171
C         -2.52552        -2.97687        -1.63424
C         -1.22083        -3.61421        -1.12891
C          0.01809        -2.88023        -1.15463
C          1.25976        -3.58697        -0.89001
C          2.48470        -2.89547        -0.79859
C          3.68012        -3.55250        -0.37631
C          4.87813        -2.81303        -0.17745
C          6.06053        -3.48221         0.28396
C          7.25552        -2.75065         0.52305
C          8.43423        -3.41812         0.99921
C          9.63199        -2.67473         1.19404
C         -8.56545        -4.93783         0.38270
C         -7.36518        -5.67832         0.16144
C         -6.16839        -4.98401        -0.27968
C         -4.95111        -5.71965        -0.46141
C         -3.75022        -5.00020        -0.80111
C         -2.48546        -5.74881        -1.00342
C         -1.20385        -4.99938        -0.92862
C          0.01004        -5.72017        -0.69623
C          1.23747        -5.00355        -0.65419
C          2.47289        -5.68332        -0.41151
C          3.67129        -4.97902        -0.21243
C          4.87735        -5.65422         0.22894
C          6.04345        -4.88886         0.52054
C          7.20814        -5.54088         1.05092
C          8.38493        -4.79734         1.27480
C         -7.33596        -7.06167         0.36005
C         -6.14551        -7.79740         0.20929
C         -4.93568        -7.12695        -0.19014
C         -3.73358        -7.86652        -0.22992
C         -2.48776        -7.22733        -0.67877
C         -1.21490        -7.87681        -0.34319
C         -0.00453        -7.15519        -0.42928
C          1.20931        -7.86178        -0.22498
C          2.47778        -7.15299        -0.38838
C          3.75978        -7.87380         0.06287
C          4.89283        -7.04415         0.46994
C          6.01263        -7.67559         1.09266
C          7.15683        -6.92739         1.35982
C         -6.11266        -9.19758         0.49712
C         -4.93538        -9.89848         0.47732
C         -3.70114        -9.24101         0.15089
C         -2.47495        -9.92611         0.21321
C         -1.23106        -9.25232         0.03292
C         -0.00827        -9.92023         0.26204
C          1.21333        -9.24095         0.13316
C          2.43766        -9.90266         0.52372
C          3.63881        -9.24156         0.60285
C          4.81442        -9.82265         1.20951
C          5.94264        -9.08846         1.41616
O         -0.79684         3.41834        -2.32941
O          1.79231         7.81217        -1.75915
O          3.40313        -7.75997        -1.35235
O         -2.28397         1.08577         1.02505
H         -3.05683         1.49825         1.46889
O         -1.93096        -0.85271        -2.74298
O         -2.57585        -3.31558        -3.04056
H         -2.21992        -2.53928        -3.53462
O          7.74086         2.79164        -2.12917
H          8.58777         2.30815        -2.23590
O          3.88335         9.01049         1.81618
H          4.78196         8.64105         1.95876
O          2.13282        -1.33239        -2.62909
O         -6.67974        -0.18375        -2.50489
H         -6.52008        -0.95793        -3.09215
O         -4.03454         3.82117        -2.07730
H         -3.16776         3.98568        -2.51128
O         -6.83090        -2.35559         1.37080
H         -6.77476        -3.15725         1.93416
O         -8.68285        -1.33267        -1.56916
O          1.33436         1.08673        -3.12148
H          1.86425         0.37339        -3.54663
O         -5.18245        -2.28165        -2.44361
O         -2.54742        -6.72975        -2.08039
H         11.79896        -1.08118         1.44709
H         11.86705         1.35856         1.01913
H         10.69427         3.46276         0.57861
H          9.50904         5.58145         0.22103
H          8.33113         7.70043        -0.10934
H          7.07876         9.85743        -0.39705
H          4.95115        11.08942        -0.08368
H          2.42446        11.01191         0.61269
H         -0.01908        10.99978         0.71129
H         -2.39089        10.90179         1.15072
H         -4.78016        10.81790         1.72427
H         -6.89550         9.54039         1.89819
H         -8.14038         7.43610         1.61454
H         -9.39797         5.36958         1.36231
H        -10.67594         3.28473         1.19777
H        -11.93867         1.20542         1.15874
H        -11.91866        -1.26895         1.26389
H        -10.66145        -3.40283         1.00868
H         -9.48158        -5.49020         0.64210
H         -8.25245        -7.57988         0.67961
H         -7.05321        -9.70044         0.76552
H         -4.91583       -10.96872         0.72754
H         -2.46613       -10.99169         0.48542
H         -0.01610       -10.97680         0.56677
H          2.36472       -10.93845         0.88895
H          4.77556       -10.87904         1.51386
H          6.82574        -9.55389         1.87785
H          8.03890        -7.41208         1.80358
H          9.27906        -5.30509         1.66544
H         10.53303        -3.19756         1.54772
