         300
 CSIRO Nanostructure Databank - Neutral Graphene Oxide Data Set
C         30.46179        31.67747         1.49261
C         30.39136        32.88705         1.19999
C         30.33541        36.01669         0.63375
C         30.23985        37.25178         0.60379
C         30.24586        40.58107         0.02366
C         30.27586        41.79852        -0.22294
C         32.90192        28.89053         1.53075
C         31.79873        29.42055         1.77774
C         32.70767        31.44107         0.52307
C         31.18238        30.49988         0.99220
C         32.64705        32.90249         0.25694
C         31.60577        33.75392         1.03493
C         32.58999        35.84448         0.04528
C         31.49209        35.15937         0.50750
C         32.49800        37.31122        -0.35047
C         31.10853        38.14062        -0.24805
C         32.60553        40.30922        -0.10539
C         31.30410        39.57792         0.19162
C         32.64221        41.75035        -0.43765
C         31.37837        42.44206        -1.03448
C         32.79649        44.41990        -0.95475
C         31.67408        43.91304        -0.95559
C         35.65551        27.31400         1.09198
C         35.38018        28.71681         1.08257
C         34.19080        29.37716         1.14941
C         35.26184        31.59284         0.30372
C         34.09070        30.92281         1.03003
C         35.20260        32.89378        -0.10535
C         33.87714        33.64507        -0.31085
C         35.13033        35.81848        -0.51656
C         33.95091        35.12502         0.15286
C         35.11462        37.31980        -0.53588
C         33.79130        38.07317        -0.53234
C         35.03759        40.21057         0.23964
C         33.88266        39.61007        -0.56932
C         35.07933        41.72934         0.43263
C         33.78550        42.55936         0.15882
C         35.22144        44.69087        -0.08956
C         34.15274        43.84232        -0.74123
C         35.59139        46.03032        -0.55818
C         37.62652        27.17609        -0.20862
C         36.65476        26.63525         0.77396
C         37.63900        28.68526        -0.16818
C         36.72677        29.41824         0.85230
C         37.84677        31.61537         0.13598
C         36.58561        30.92405         0.54729
C         37.77179        33.04967        -0.31750
C         36.41340        33.61504        -0.70540
C         37.61696        35.88867        -0.87727
C         36.41901        35.11041        -0.49494
C         37.66378        37.27282        -0.29101
C         36.36427        37.98241        -0.04962
C         37.68178        40.07069         0.58738
C         36.30449        39.43561         0.36086
C         37.72817        41.64169         0.67799
C         36.42123        42.42884         0.58293
C         37.81224        44.64437         0.36877
C         36.50119        43.95222         0.43779
C         37.93616        46.03195         0.10397
C         36.65371        46.58973        -0.22983
C         40.09677        24.46674         0.16418
C         39.08098        25.09965        -0.12522
C         40.17705        27.23012        -0.30690
C         38.86854        26.45844        -0.70277
C         40.22267        28.59212        -0.47022
C         38.92503        29.38202        -0.69796
C         40.20368        31.47081        -0.95212
C         39.14629        30.82292        -0.02231
C         40.26769        33.00827        -0.98345
C         38.99438        33.77122        -0.77713
C         40.20014        36.01767        -0.72195
C         38.94314        35.23311        -1.15752
C         40.14812        37.53031        -1.03715
C         38.85296        38.13323        -0.54999
C         40.49225        40.64771        -0.27962
C         38.62698        39.47007        -0.44580
C         40.36453        41.72533         0.52783
C         39.03557        42.40641         0.69448
C         40.39423        44.59171         0.53050
C         39.06896        43.87311         0.37581
C         40.43091        46.08628         0.52255
C         39.16462        46.73168         0.20444
C         40.36613        48.87328         0.27221
C         39.38372        48.12991         0.06318
C         42.74671        24.42359         0.09727
C         41.43469        25.00817         0.38913
C         42.70769        27.15414        -0.57359
C         41.45167        26.50377         0.00599
C         42.70875        28.66162        -0.34343
C         41.49398        29.32332        -0.46337
C         42.78401        31.59629        -0.32924
C         41.54970        30.80261        -0.68481
C         42.71200        33.12638        -0.11683
C         41.54249        33.77474        -0.85494
C         42.80312        36.03627        -0.88841
C         41.51888        35.29040        -1.00719
C         42.77251        37.54016        -0.99004
C         41.45438        38.29902        -0.91994
C         42.85602        40.19660         0.28667
C         41.48123        39.54206        -0.00156
C         42.87821        41.57017         0.90586
C         41.59015        42.34539         1.09903
C         42.89933        44.58844         0.82427
C         41.60597        43.85235         1.05103
C         42.87396        46.07319         1.07828
C         41.63445        46.78461         0.62041
C         42.93275        48.84966         0.82531
C         41.74843        48.28278         0.09185
C         43.82468        24.99030        -0.10369
C         45.15569        27.19537         0.39802
C         44.05963        26.43138        -0.28094
C         44.79404        28.57246         0.83596
C         43.88761        29.36282         0.13127
C         45.34768        31.63475        -0.10990
C         43.92657        30.87315         0.40998
C         45.25614        33.16565         0.23307
C         44.05783        33.85149        -0.48904
C         45.32430        36.12808        -0.31755
C         43.98898        35.38164        -0.15684
C         45.31393        37.52962        -0.52104
C         44.06691        38.27090        -0.86354
C         45.31282        40.47256        -0.50761
C         43.95374        39.80380        -0.69511
C         45.34906        41.82124         0.17844
C         44.20744        42.33235         1.05793
C         45.52981        44.57197         1.00889
C         44.18815        43.84188         0.83298
C         45.50592        46.08187         1.14853
C         44.19884        46.79770         1.33585
C         43.97432        48.21067         1.02717
C         47.51968        27.49198         1.10267
C         46.48252        26.84947         0.94177
C         47.88080        28.91201         1.13248
C         47.01472        29.65010         0.11708
C         47.75120        31.82732         0.78522
C         46.68192        31.07223         0.41896
C         47.73508        33.34344         0.74026
C         46.58989        33.90190        -0.12407
C         47.80528        36.15999         0.10272
C         46.51371        35.42979        -0.00409
C         47.79429        37.67433        -0.13699
C         46.61162        38.20117        -0.96844
C         47.83945        40.36450        -0.23067
C         46.59932        39.74194        -0.79762
C         47.76572        41.45424         0.56735
C         46.67230        42.41923         0.62094
C         48.23924        44.46108         1.50440
C         46.75099        43.69507         1.50523
C         47.89299        45.88682         1.45482
C         46.83800        46.51359         1.62386
C         50.39709        29.21469         1.83183
C         49.03323        29.72761         1.61614
C         50.16114        31.69008         0.24610
C         49.09167        31.23931         1.26673
C         50.25617        33.21239         0.33538
C         49.08592        33.90369         0.27870
C         50.32785        35.97429        -0.56543
C         49.11266        35.39080         0.12921
C         50.34379        37.43769        -0.89787
C         49.11037        38.26762        -0.69403
C         50.43939        40.64946        -0.77825
C         49.16140        39.76530        -0.60007
C         50.76998        41.80077         0.22681
C         49.79772        42.40979         0.95975
C         50.85188        44.52517         0.80652
C         49.62850        43.86704         1.30394
C         51.39327        29.74056         1.31933
C         52.65873        31.87907         0.75598
C         51.84386        30.73953         0.37367
C         52.67946        33.10435         0.64857
C         51.54824        34.07853         0.55717
C         52.71303        36.11751        -0.57905
C         51.63111        35.07496        -0.59035
C         52.73984        37.28250        -0.97877
C         51.63385        38.23117        -1.18681
C         52.85698        40.59173        -1.03679
C         51.67204        39.73147        -1.16111
C         52.94552        41.81576        -0.85552
C         52.15315        42.55620         0.17591
C         51.73009        44.00478         0.09283
O         50.05576        36.41830        -1.92570
O         43.36805        46.37249         2.44252
O         35.47546        44.55776         1.30515
O         38.69919        29.55702        -2.05489
O         43.05769        40.32546         1.70319
O         32.20729        39.87292         1.26455
O         40.73769        38.20087        -2.17736
O         42.31625        35.56165        -2.18117
O         37.05185        37.23701         1.03212
O         35.60167        42.05570         1.74189
O         34.20985        31.31228         2.35014
O         48.62929        36.01180         1.35266
O         43.53478        44.19031        -0.42399
O         39.43469        40.36597        -1.13976
O         45.95271        40.49625        -1.84501
O         35.16227        36.57622        -1.79207
O         42.57095        31.17040        -1.69596
O         51.53067        39.00330        -2.39746
O         33.01082        37.60048        -1.67762
O         41.52697        26.01634         1.40534
O         38.16443        35.70726        -2.25713
O         43.55093        37.90214        -2.18753
O         48.91836        39.08649        -1.88332
O         45.10108        26.99934        -1.05522
O         37.39121        31.64519         1.53163
O         46.05365        42.76116        -0.65671
O         42.65189        26.93902        -2.07211
O         38.37351        42.06455         1.93274
O         49.07260        44.08668         2.61980
O         35.35916        39.53864         1.48011
O         48.78268        41.63361         1.50625
O         36.94885        27.96634        -1.22595
O         47.91803        29.49328         2.48335
O         41.08551        33.29956        -2.15299
O         32.30469        31.90395        -0.78438
O         39.94929        44.10708        -0.78394
O         46.72638        29.16307        -0.96492
O         41.46772        43.14201         2.31650
O         38.58119        33.79107         0.64647
O         45.71473        45.44167        -0.13601
O         31.23361        42.06707        -2.38526
H         30.39082        42.42618        -2.73178
O         30.65033        30.00838        -0.17451
H         30.39418        30.75355        -0.75723
O         43.39294        40.35118        -1.90483
H         44.07942        40.29946        -2.60803
O         49.42339        31.88425         2.52185
H         49.02661        31.34852         3.24385
O         46.54957        43.44182         2.87910
H         47.41293        43.21038         3.29084
O         44.24805        33.77739        -1.90072
H         44.08396        32.85368        -2.20473
O         38.85616        26.41564        -2.12566
H         38.17908        27.06663        -2.43388
O         39.82202        31.17992        -2.30822
H         40.57946        30.77619        -2.78972
O         51.63777        34.34962        -1.79917
H         51.44903        34.98624        -2.52672
O         41.55760        27.66141        -2.66030
H         40.81317        27.00113        -2.68939
O         51.39439        34.81159         1.75702
H         51.37255        34.18765         2.51174
O         43.68719        35.52367         1.25936
H         43.79778        36.46164         1.52153
O         34.69159        43.40420        -1.98147
H         33.97995        42.99145        -2.51632
O         32.18205        33.87636         2.35837
H         31.49400        34.20869         2.97258
O         46.94462        33.65323        -1.49309
H         46.12583        33.76912        -2.03965
O         33.28508        43.04141         1.40497
H         34.01027        42.97679         2.07359
O         45.07742        33.26509         1.65416
H         44.69069        34.15375         1.86099
O         39.74670        30.66228         1.24710
H         39.01474        30.53658         1.90648
O         49.73469        31.31580        -1.03273
H         50.16579        31.87545        -1.71079
O         33.67964        33.75253        -1.74338
H         33.25288        32.91099        -2.03592
O         44.60788        42.07290         2.41441
H         43.84366        42.21908         3.01086
O         40.19588        35.97408         0.73303
H         39.37195        36.36966         1.09330
O         34.35388        35.18905         1.52980
H         33.73383        34.64823         2.08684
O         52.76065        42.35867         1.43291
H         53.62587        42.81649         1.45115
O         45.38645        29.02144         1.94425
H         44.94352        29.87187         2.22697
O         47.56790        38.27301         1.16511
H         48.03416        37.71760         1.83422
O         47.55752        33.82426         2.08219
H         48.29399        33.44833         2.61950
O         34.14740        39.98136        -1.93520
H         33.63630        39.37203        -2.51656
O         38.16324        39.56887         1.84115
H         37.47578        39.75341         2.51801
O         36.33515        33.42325        -2.14673
H         35.43813        33.73237        -2.43267
O         46.76735        37.84368        -2.34196
H         46.26239        38.48399        -2.88786
O         45.36076        31.46227        -1.52314
H         45.67800        30.54382        -1.71784
O         42.03769        48.21768        -1.27808
H         42.12522        49.12268        -1.64095
O         50.16812        41.41737        -1.95998
H         49.95786        40.78349        -2.68315
O         30.56581        38.21785        -1.54558
H         30.43829        37.31594        -1.90481
O         37.45585        29.29535         2.09499
H         36.92301        29.72146         2.80209
O         43.77098        31.04355         1.82510
H         43.97195        31.99683         2.04513
O         42.45415        33.34331         1.28490
H         41.56712        32.99304         1.51476
O         52.11107        30.24606        -0.88134
H         52.63587        30.89155        -1.39471
O         41.02416        38.95664         1.24623
H         41.33186        39.52722         1.99005
