         344
 CSIRO Nanostructure Databank - Neutral Graphene Oxide Data Set
C          1.18977         2.07904         0.04273
C          1.20105         3.48381         0.13324
C          2.36964         1.37639        -0.09317
C          2.39889         4.21088         0.07769
C          1.28669         6.37772         0.55100
C          1.28719         7.80421         0.64854
C          2.40452         5.66539         0.19175
C          2.45578         8.53281         0.56831
C          1.26056        10.76199         0.67791
C          1.26685        12.12106         0.78383
C          2.48588         9.98811         0.75253
C          2.47084        12.87131         1.03258
C          1.31737        15.05685         0.90438
C          1.37312        16.41932         0.86686
C          2.50098        14.25712         1.07163
C          2.62834        17.12814         0.89472
C          2.63882        18.54094         0.69671
C          3.61760         2.06696        -0.15229
C          3.63378         3.50365        -0.08154
C          4.81820         1.34826        -0.27300
C          4.88824         4.19169        -0.12268
C          3.64120         6.42834        -0.24588
C          3.70973         7.82813         0.34706
C          4.92469         5.64692        -0.06822
C          4.90958         8.46255         0.53785
C          3.67861        10.63546         0.96073
C          3.73225        12.09651         1.34937
C          4.96277         9.86675         1.10966
C          4.97336        12.81607         0.85052
C          3.81048        14.95831         1.40733
C          3.83671        16.43736         1.05528
C          4.99132        14.17668         0.85298
C          5.08293        17.13398         1.03391
C          3.82348        19.22737         0.65744
C          5.08856        18.57589         0.82747
C          6.07470         2.01142        -0.32916
C          6.09018         3.46019        -0.22869
C          7.26253         1.29360        -0.45345
C          7.36136         4.12799        -0.23252
C          6.11243         6.32384         0.02030
C          6.15454         7.77115         0.21813
C          7.43182         5.58963         0.13818
C          7.34213         8.46011         0.10792
C          6.15502        10.65685         0.60592
C          6.16812        12.02588         0.53433
C          7.45696         9.88470         0.61481
C          7.44758        12.75579         0.38253
C          6.18950        14.95141         0.35612
C          6.27344        16.33878         0.95449
C          7.48371        14.18741         0.49456
C          7.54315        16.86676         1.14384
C          6.23215        19.37733         0.56972
C          7.54958        18.99020         0.88095
C          8.58950         1.95132        -0.66727
C          8.54933         3.44216        -0.41529
C          9.73740         1.30294         0.14158
C          9.81775         4.13647        -0.47132
C          8.51566         6.30826        -0.65517
C          8.49363         7.80197        -0.57834
C          9.81285         5.56366        -0.98823
C          9.79540         8.54838        -0.86447
C          8.53987        10.61530        -0.18185
C          8.62696        12.05975         0.21637
C          9.87055         9.85753        -0.06596
C          9.96519        12.70561         0.40559
C          8.71319        14.87768         0.43505
C          8.75079        16.30342         0.63641
C          9.95226        14.19485         0.23474
C          9.93710        17.06306         0.41132
C          8.76592        19.35255         0.29719
C          9.93846        18.52339         0.32247
C         11.04805         2.02503        -0.10690
C         11.01182         3.45224        -0.35263
C         12.24338         1.35498        -0.08128
C         12.31222         4.15186        -0.69786
C         11.05797         6.34684        -0.61547
C         11.04771         7.73944        -0.58748
C         12.27937         5.64219        -0.44894
C         12.26731         8.46859        -0.51747
C         11.07897        10.65964        -0.47584
C         11.10374        12.03245        -0.30909
C         12.29673         9.90202        -0.63325
C         12.27921        12.79111        -0.59850
C         11.13055        14.90367        -0.01317
C         11.13465        16.34922         0.05790
C         12.33553        14.18512        -0.41533
C         12.34925        17.04290        -0.20294
C         11.15566        19.17095         0.03349
C         12.36040        18.47471        -0.16577
C         13.51729         2.05913        -0.06230
C         13.51772         3.45627        -0.13273
C         14.74681         1.36393         0.07082
C         14.70814         4.17676         0.44670
C         13.47188         6.34564        -0.29432
C         13.49659         7.77084        -0.40121
C         14.71093         5.66915         0.15605
C         14.72783         8.48552        -0.53211
C         13.51164        10.57669        -0.78314
C         13.46687        12.03248        -1.02886
C         14.75244         9.86525        -0.79266
C         14.76916        12.76893        -1.12538
C         13.56604        14.90664        -0.64638
C         13.56456        16.35275        -0.52631
C         14.76819        14.22648        -0.91343
C         14.74000        17.08216        -0.79283
C         13.57726        19.17646        -0.39723
C         14.74723        18.50442        -0.70629
C         15.99565         2.05069         0.00137
C         16.01839         3.49208         0.07584
C         17.20977         1.34935        -0.12708
C         17.22597         4.17585        -0.00469
C         16.01317         6.39764         0.01860
C         15.96965         7.70652        -0.70428
C         17.33522         5.67430         0.25357
C         17.23132         8.39943        -1.15148
C         16.02411        10.55306        -0.96152
C         16.05311        12.05245        -0.75008
C         17.22428         9.88075        -1.08930
C         17.22629        12.71916        -1.45751
C         16.02571        14.90034        -1.06065
C         15.96924        16.36834        -1.20387
C         17.24342        14.21830        -1.18645
C         17.27490        17.11909        -1.32489
C         15.97392        19.32528        -1.04391
C         17.28809        18.57164        -1.01540
C         18.45275         2.02976        -0.15767
C         18.45741         3.46168        -0.10531
C         19.69059         1.33824        -0.22107
C         19.70147         4.16577        -0.04663
C         18.53120         6.30530        -0.42722
C         18.54924         7.62707        -1.18415
C         19.72539         5.61680        -0.25957
C         19.75767         8.45668        -0.82957
C         18.50322        10.60604        -1.04953
C         18.51146        11.98081        -1.15256
C         19.75209         9.85060        -0.86036
C         19.76383        12.75304        -1.21570
C         18.49820        14.92218        -1.13532
C         18.52761        16.35190        -1.13784
C         19.73489        14.21914        -1.01866
C         19.73272        17.04255        -0.98976
C         18.46416        19.21605        -0.89106
C         19.75479        18.52778        -1.27043
C         20.91386         2.02778        -0.10866
C         20.89831         3.45425         0.02909
C         22.16733         1.34914        -0.20154
C         22.14827         4.17791         0.43913
C         20.98706         6.28387        -0.36528
C         21.06549         7.70947        -0.86960
C         22.18113         5.62008        -0.04954
C         22.21001         8.48091        -0.27622
C         20.98256        10.56778        -0.66159
C         21.05856        12.00751        -0.92420
C         22.18357         9.89743        -0.27472
C         22.21743        12.77610        -0.44036
C         20.94231        14.90538        -0.75820
C         20.94347        16.33769        -0.73966
C         22.17633        14.19383        -0.45358
C         22.15054        17.05819        -0.48327
C         20.97471        19.21224        -0.75189
C         22.13777        18.50731        -0.47343
C         23.41941         1.98348        -0.04184
C         23.44170         3.40683         0.24235
C         24.60658         1.24256        -0.40151
C         24.61375         4.15356         0.39248
C         23.38179         6.34521         0.03805
C         23.39020         7.78416         0.04701
C         24.68296         5.61538        -0.00382
C         24.56007         8.52232         0.39912
C         23.36935        10.63402         0.05385
C         23.36824        12.08120         0.02129
C         24.56363         9.93048         0.38734
C         24.52597        12.80685         0.38982
C         23.34958        14.91750        -0.10722
C         23.34872        16.36383        -0.15506
C         24.54374        14.21477         0.26585
C         24.52436        17.09032         0.12367
C         23.35701        19.20657        -0.22758
C         24.54253        18.51282         0.01434
C         25.88144         1.57314         0.07726
C         25.86096         3.58527         0.71897
C         27.18065         1.33936        -0.42679
C         27.11247         4.22907         0.57857
C         25.79837         6.31491         0.73357
C         25.75762         7.80979         0.86647
C         27.11281         5.66122         0.68255
C         27.03491         8.52921         0.96858
C         25.77724        10.63565         0.76048
C         25.70710        12.11968         1.03688
C         26.96247         9.96459         1.00846
C         27.02608        12.82187         0.76706
C         25.77599        14.92977         0.45935
C         25.75366        16.41584         0.65813
C         27.00698        14.25033         0.57174
C         27.03764        17.10335         0.25571
C         25.80696        19.20423         0.03785
C         27.00369        18.51610         0.04269
C         28.32932         2.11654        -0.09109
C         28.32188         3.48482         0.39484
C         29.60496         1.55864        -0.42826
C         29.54509         4.21575         0.50245
C         28.27402         6.39001         0.90688
C         28.24575         7.82652         1.03693
C         29.53339         5.62272         0.97772
C         29.50163         8.57952         1.10781
C         28.17961        10.71858         1.49063
C         28.21616        12.15226         0.97993
C         29.46718         9.96674         1.26301
C         29.47199        12.86178         0.95960
C         28.24814        14.97579         0.54186
C         28.24997        16.39568         0.32544
C         29.48047        14.27632         0.72179
C         29.51298        17.11250         0.25381
C         28.26960        19.27227        -0.27768
C         29.53201        18.51174         0.03251
C         30.77698         2.25960        -0.27974
C         30.77296         3.61132         0.17421
C         31.98881         4.38862         0.13332
C         30.84703         6.42996         0.92559
C         30.75540         7.90327         0.91386
C         32.02199         5.72101         0.40034
C         31.93232         8.69309         0.74839
C         30.73258        10.71686         1.57978
C         30.68829        12.19318         1.24130
C         31.94191        10.03040         1.01383
C         31.87604        12.92822         1.30680
C         30.71852        14.99297         0.73753
C         30.73636        16.42723         0.48228
C         31.89745        14.29619         1.04165
C         31.94354        17.16040         0.46953
C         30.73997        19.21055         0.04229
C         31.94539        18.53357         0.25932
O         15.26344         6.47578         1.27830
O         16.33315         7.75052        -2.13173
O          7.65701        18.02998         1.91148
O          8.01420         7.06477        -1.79256
O         25.45807         6.89917         2.01517
O         14.07582        12.37334        -2.33975
O         20.65419        12.35203        -2.31613
O         25.86446         2.31496         1.28795
O         16.50179        16.80071        -2.52741
O         30.31855         5.85970         2.18398
O         30.85312        10.67245         3.07113
H         30.99672         9.73126         3.31374
O         12.42735         4.03234        -2.16334
H         11.58891         4.39165        -2.54348
O         22.04188         4.31313         1.90468
H         21.97580         3.41004         2.28144
O          5.98842        15.15528        -1.08872
H          6.09288        14.28262        -1.52498
O         25.50378        12.24593         2.48743
H         26.26109        11.77779         2.91919
O          8.07414        10.63538        -1.55940
H          8.78975        10.28545        -2.14688
O          8.96083         1.74412        -2.06849
H          8.29000         2.19269        -2.62472
O          9.44097         1.34379         1.54292
H          9.49103         2.27522         1.84153
O          3.95128        14.90939         2.86406
H          3.98783        13.95279         3.11623
O         17.65879         5.80055         1.67366
H         16.80527         5.87978         2.15989
O         28.02699        10.85255         2.95597
H         28.93800        10.99049         3.32029
O         14.57152         4.02059         1.89936
H         14.94553         4.83294         2.31077
O         18.75742         7.23560        -2.59302
H         17.85893         7.14507        -2.99389
O         16.03821        20.49584        -0.22576
H         16.12559        20.21672         0.70823
O          7.86891         5.66547         1.53017
H          7.16728         5.27082         2.08925
O         10.13607         9.48540         1.30177
H         10.13914        10.31306         1.83746
O         25.10774         5.62137        -1.41142
H         24.33175         5.39186        -1.96577
O         21.41407         7.58150        -2.30794
H         20.56686         7.37427        -2.77710
O          3.48949         6.60561        -1.69754
H          2.66171         7.11118        -1.84214
O          7.82001         9.83692         2.02047
H          7.00342         9.56272         2.51180
O          3.85028        12.09691         2.84412
H          2.99003        11.77453         3.19234
O         19.82792        18.65245        -2.74452
H         19.04950        18.18019        -3.11244
O         16.25061        12.27408         0.67489
H         15.58583        11.74997         1.16879
O          9.84339         8.86984        -2.28202
H          9.31396         8.17791        -2.74418
O         10.28051        12.45412         1.85119
H          9.58350        12.90375         2.37734
O         28.27505        20.55588         0.36189
H         28.26100        20.41262         1.33025
O         17.00648        12.57031        -2.88160
H         17.76944        12.96203        -3.35579
O         25.67445        16.59789         2.13988
H         26.34922        16.00640         2.53816
O          9.87661         5.41194        -2.44447
H          9.20428         6.02656        -2.82554
O          5.17979         9.69370         2.56652
H          4.93531        10.56126         2.97922
H          0.22998         1.54528         0.08335
H          0.24069         4.00686         0.23475
H          2.36380         0.27889        -0.15609
H          0.34813         5.85958         0.79311
H          0.33265         8.30063         0.86940
H          0.31200        10.24681         0.47686
H          0.31865        12.66081         0.65541
H          0.34100        14.56305         0.80339
H          0.44873        17.00367         0.74918
H          1.68297        19.06953         0.57084
H          4.78813         0.25029        -0.33106
H          3.81872        20.31539         0.49646
H          7.21899         0.19571        -0.51622
H          6.07504        20.32210         0.02611
H          9.82858         0.22730        -0.14724
H          8.82956        20.29389        -0.27014
H         12.25415         0.26212         0.04991
H         11.16681        20.26936        -0.02851
H         14.74415         0.26429         0.10115
H         13.58216        20.27523        -0.35108
H         17.19638         0.25000        -0.17079
H         15.84248        19.69002        -2.10164
H         19.69287         0.24214        -0.31527
H         18.47460        20.30182        -0.70737
H         22.15280         0.27171        -0.42439
H         20.99485        20.31255        -0.75560
H         24.49261         0.41941        -1.12334
H         23.36572        20.30470        -0.28890
H         27.32565         0.51749        -1.14526
H         25.81593        20.29585        -0.09629
H         29.63604         0.52550        -0.80448
H         28.26437        19.48098        -1.38638
H         31.73687         1.78974        -0.53920
H         32.89891         3.88872        -0.23114
H         32.94557         6.28276         0.20243
H         32.86659         8.21005         0.42907
H         32.88103        10.58949         0.90504
H         32.81590        12.43406         1.58623
H         32.85916        14.82179         1.09806
H         32.90332        16.65274         0.63104
H         30.73204        20.29694        -0.12265
H         32.89455        19.08708         0.25875
