         276
 CSIRO Nanostructure Databank - Neutral Graphene Oxide Data Set
C        -11.22949         0.59359        -0.69000
C        -10.11757         1.47677        -0.32740
C         -8.98844         0.79079         0.42922
C         -7.67090         1.50650         0.22534
C         -6.51302         0.96736         1.04346
C         -5.12112         1.31612         0.30270
C         -3.83941         0.69958         0.99064
C         -2.59034         1.38399         0.35084
C         -1.28615         0.71673         0.78255
C         -0.03224         1.47807         0.54635
C          1.17097         0.74003         0.06819
C          2.47046         1.39765         0.40771
C          3.74365         0.65389         0.27116
C          5.03447         1.39902         0.52088
C          6.34663         0.67023         0.41171
C          7.63291         1.44137         0.52747
C          8.85914         0.81661        -0.09710
C         10.13173         1.54680         0.25929
C         11.33579         0.76643         0.02009
C        -10.07059         2.80305        -0.63553
C         -8.92188         3.67953        -0.15037
C         -7.62860         2.90072        -0.24946
C         -6.29811         3.58636        -0.33863
C         -5.10740         2.87454         0.25637
C         -3.83957         3.65743         0.37976
C         -2.57073         2.88980         0.63179
C         -1.27724         3.61806         0.53241
C         -0.02543         2.82905         0.41331
C          1.24918         3.53454         0.08820
C          2.50507         2.89889         0.65723
C          3.79870         3.53507         0.07054
C          5.03963         2.85469         0.59057
C          6.26718         3.59984         0.87233
C          7.60808         2.91424         0.82730
C          8.84231         3.67535         0.50344
C         10.07717         2.92472         0.41566
C         -8.78532         5.09878        -0.64794
C         -7.55652         5.80569        -0.58406
C         -6.26377         5.04996        -0.62772
C         -4.94099         5.81808        -0.66058
C         -3.74652         5.08259        -0.05812
C         -2.56438         5.75303        -0.00614
C         -1.25774         4.99516        -0.11214
C          0.01969         5.72499         0.37380
C          1.25111         4.99974        -0.16573
C          2.56085         5.72368        -0.16735
C          3.78359         5.03174         0.23558
C          5.07540         5.74843        -0.04188
C          6.28701         5.11193         0.61458
C          7.56213         5.79812         0.32038
C          8.77604         5.06482         0.31782
C         -7.50926         7.19713        -0.47730
C         -6.30105         7.98238        -0.02159
C         -4.98361         7.25014        -0.18505
C         -3.81271         7.92418        -0.11963
C         -2.51327         7.21512        -0.42487
C         -1.29394         7.96722         0.08238
C          0.00103         7.25119         0.21764
C          1.19779         8.01098        -0.38842
C          2.52812         7.22072        -0.30197
C          3.74634         7.98272         0.11282
C          5.02765         7.23255         0.27784
C          6.31473         7.94422         0.11721
C          7.49790         7.20895         0.06678
C         -6.15608         9.34943        -0.68317
C         -5.00038        10.02383        -0.60595
C         -3.80609         9.42365         0.11599
C         -2.48010        10.10283        -0.17191
C         -1.26581         9.44821        -0.13014
C         -0.00584        10.12038         0.03132
C          1.25534         9.46105         0.08545
C          2.47242        10.13637         0.13082
C          3.72911         9.42639        -0.35193
C          5.06609        10.08109        -0.09885
C          6.23188         9.38997         0.03938
C        -11.21635        -0.74852        -0.51446
C        -10.04394        -1.50090         0.09524
C         -8.78739        -0.63882        -0.15346
C         -7.49817        -1.32992         0.34938
C         -6.63949        -0.50560         1.21752
C         -4.78596        -1.69892         1.23262
C         -3.73761        -0.82476         0.84606
C         -2.51245        -1.50602         0.52061
C         -1.23946        -0.77883         0.75280
C          0.10419        -1.51658         0.64974
C          1.16430        -0.73515        -0.14159
C          2.43227        -1.51012        -0.57900
C          3.75413        -0.68455        -0.40984
C          5.08168        -1.38457        -0.49331
C          6.42824        -0.67247        -0.31263
C          7.57273        -1.43462         0.32657
C          8.87193        -0.66216         0.31120
C         10.15790        -1.43058         0.22368
C         11.34421        -0.59600        -0.12051
C         -9.79638        -2.88855        -0.46318
C         -8.60278        -3.52856        -0.31783
C         -7.38000        -2.83842         0.23149
C         -6.33097        -3.64910         1.10940
C         -4.95290        -3.00794         0.87097
C         -3.86699        -3.56173        -0.03467
C         -2.54253        -2.83980         0.15179
C         -1.30840        -3.51191        -0.34721
C          0.00188        -2.98115         0.16520
C          1.28511        -3.72996        -0.09289
C          2.59469        -2.92440         0.03650
C          3.80414        -3.62143        -0.61499
C          5.11085        -2.89145        -0.59594
C          6.21899        -3.66350         0.16123
C          7.57328        -2.93491         0.34066
C          8.87798        -3.61059         0.06056
C         10.04033        -2.89804        -0.00734
C         -8.50799        -4.96183        -0.55521
C         -7.41527        -5.67384        -0.17521
C         -6.33840        -5.14933         0.74875
C         -4.95145        -5.79002         0.56929
C         -3.68497        -5.04912         0.23468
C         -2.50031        -5.76350        -0.35920
C         -1.31371        -4.94132        -0.81466
C         -0.01724        -5.70975        -1.02404
C          1.27577        -5.02147        -0.82034
C          2.51981        -5.80832        -0.78637
C          3.83867        -5.12328        -0.52222
C          5.16547        -5.79847        -0.81984
C          6.39229        -5.07828        -0.35676
C          7.58962        -5.80580         0.23553
C          8.88647        -5.11793        -0.27736
C         -7.42620        -6.96769         0.61819
C         -6.32087        -7.93340         0.13711
C         -4.98105        -7.24531         0.32407
C         -3.82522        -7.96069        -0.29176
C         -2.60018        -7.22903        -0.71409
C         -1.33650        -8.09280        -0.96240
C         -0.05435        -7.23372        -1.04060
C          1.23026        -8.01934        -0.92970
C          2.53566        -7.27245        -1.10276
C          3.83554        -8.00624        -0.91219
C          5.22446        -7.31951        -1.01899
C          6.34604        -7.97986        -0.22818
C          7.48363        -7.31338         0.09402
C         -6.17306        -9.32428         0.72461
C         -4.97595        -9.96388         0.68914
C         -3.73428        -9.36333         0.19971
C         -2.49702        -9.90293         0.42839
C         -1.25425        -9.27005         0.00864
C         -0.05745        -9.84692         0.32063
C          1.23041        -9.38064        -0.23509
C          2.49929        -9.94553         0.18155
C          3.80482        -9.21669         0.02401
C          5.04889       -10.06078        -0.12498
C          6.24857        -9.44269        -0.16061
O         -6.76279        -1.98301        -0.76868
O          2.77007         6.43044        -1.49678
O         -4.63142         5.95418        -2.09120
O         -5.77500        -1.05414         2.07682
O          7.85714         1.91744         1.87381
O         -3.63855        -7.58740        -1.69523
O          7.43300        -2.13095         1.57817
O         -2.60218        -5.48699         1.09513
O          4.47299        -3.26261        -1.85559
O          0.81995         0.16738        -1.24490
O          3.16129        -5.67673         0.61996
O         -6.97495        -6.10560         1.75321
O          5.66845         0.67008         1.67764
O          3.00964         0.63524         1.54577
O         -0.05702        -6.47366        -2.29622
O          9.62075        -0.93676         1.51264
O          0.93680         8.24559        -1.75045
O         -1.34244        -0.01820         2.04149
O         -0.70284         7.76582         1.41508
O          4.23708         7.67692         1.44228
O         -4.76363         3.48878         1.52745
O          1.16510        -9.20636        -1.73568
O          4.46558        -0.71388        -1.66253
O         -7.54172         1.78258        -1.20544
O          1.22112         4.05379        -1.28381
O          6.12905         4.61216         1.95509
O         -1.46068        -3.86443        -1.79126
O          0.55113        -3.87289         1.18978
O         -4.70738        -6.75581         1.65625
O          3.22493        -7.90368        -2.22874
O         -1.91777         3.40494         1.82898
O          6.09555        -5.16953        -1.76480
O          6.91532        -0.48826        -1.65493
H          6.14738        -0.27793        -2.23599
O          0.15112         5.45744         1.78909
H         -0.37202         6.13558         2.27653
O          0.65790        -1.56638         1.98031
H          0.17991        -0.90049         2.53135
O        -10.29185        -1.69805         1.50328
H        -10.28212        -0.81523         1.94304
O         -4.04373         9.65265         1.55109
H         -3.28669         9.26853         2.04417
O         -6.57629        -8.08413        -1.28140
H         -5.77410        -8.45383        -1.71026
O          5.67751        -7.55450        -2.37152
H          4.91060        -7.41737        -2.97340
O          2.96524        -2.80845         1.40950
H          2.14723        -2.90626         1.95643
O         -1.16667         4.76585        -1.53475
H         -1.23490         5.64357        -1.98768
O         -2.31149         7.24254        -1.86909
H         -3.13491         6.86429        -2.27792
O         10.01843        -5.73480         0.32302
H          9.82870        -5.78747         1.28504
O         -9.27796         0.73739         1.83676
H         -9.24590         1.66041         2.17852
O          8.79394         0.99003        -1.53306
H          9.58336         0.56967        -1.93289
O         -3.89063         1.04526         2.38223
H         -3.04598         0.74518         2.79388
O          5.34948         5.64163        -1.47045
H          4.53098         5.93831        -1.94235
O         -6.53947         1.64237         2.30334
H         -5.65196         1.54180         2.72977
O          7.61205        -5.60471         1.67748
H          6.78486        -5.13179         1.95178
O         -5.16756         0.78132        -1.00988
H         -5.95647         1.16048        -1.48837
O          3.92919        -8.54510         1.34138
H          4.22004        -9.21108         2.00029
O         -6.50792         8.23324         1.40239
H         -5.76439         8.81686         1.69791
O         -1.47141        -8.71058        -2.24958
H         -1.23148        -8.04177        -2.92842
O          3.53468         9.40023        -1.79910
H          2.62639         9.01249        -1.98427
O         -6.73186        -3.50299         2.47324
H         -6.82761        -4.39582         2.87004
O         -8.68058        -0.48135        -1.57468
H         -8.00469        -1.12275        -1.89778
O          2.45892         3.13891         2.06644
H          2.93620         2.40150         2.51241
O          3.78335         3.24319        -1.36493
H          2.97751         3.68201        -1.74542
O          2.24134        -1.78546        -1.96808
H          2.02806        -0.94240        -2.42579
O         -2.59279         1.24891        -1.08341
H         -3.48022         0.94700        -1.39991
O         -6.18238         4.04772        -1.72315
H         -4.91320         5.11310        -2.52598
O         -9.12167         3.80156         1.31684
H         -9.74216         4.54479         1.47720
O          5.64860        -3.83247         1.48785
H          5.89418        -3.03762         2.02349
O         -4.26644        -3.45382        -1.43507
H         -3.44453        -3.50714        -1.97918
H         12.29023        -1.10450        -0.36228
H         12.28521         1.31306        -0.09712
H         11.02006         3.49549         0.43722
H          9.70841         5.60845         0.09775
H          8.44682         7.74156        -0.10510
H          7.17584         9.95406         0.10763
H          5.10582        11.18040        -0.14947
H          2.46370        11.23865         0.07786
H         -0.03228        11.20943         0.20944
H         -2.49553        11.20361        -0.22989
H         -4.90192        11.03174        -1.03713
H         -7.03477         9.79648        -1.17265
H         -8.46751         7.74069        -0.45195
H         -9.70678         5.70575        -0.64206
H        -10.90535         3.26801        -1.18389
H        -12.11794         1.06784        -1.13733
H        -12.10554        -1.33343        -0.79845
H        -10.65389        -3.45281        -0.86428
H         -9.41249        -5.48715        -0.89911
H         -8.41040        -7.45110         0.81748
H         -7.05875        -9.84505         1.11985
H         -4.90409       -10.98807         1.08802
H         -2.41688       -10.87545         0.93955
H         -0.03959       -10.73557         0.97127
H          2.47414       -10.70713         0.97879
H          4.97150       -11.15722        -0.09399
H          7.17957       -10.03058        -0.14986
H          8.32122        -7.87998         0.53296
H          8.97288        -5.24239        -1.38810
H         10.96175        -3.44429        -0.26631
