         429
 CSIRO Nanostructure Databank - Neutral Graphene Oxide Data Set
C          3.30448         2.67157        -4.89559
C          2.98712         3.98496        -4.42837
C          4.14399         1.84909        -4.19315
C          3.41745         4.44453        -3.20265
C          2.14028         6.59014        -3.35472
C          1.95429         7.91702        -3.00756
C          3.16329         5.81412        -2.75820
C          2.84451         8.58952        -2.13819
C          1.67303        10.77874        -2.42971
C          1.61475        12.18635        -2.23730
C          2.70567        10.01603        -1.91212
C          2.65331        12.90670        -1.67631
C          1.69851        15.13264        -2.44805
C          1.86795        16.45502        -2.68461
C          2.55102        14.39859        -1.44404
C          2.97688        17.18511        -2.12210
C          3.09993        18.57866        -2.31016
C          4.71515         2.27814        -2.94523
C          4.22437         3.54199        -2.35709
C          5.70329         1.55691        -2.31291
C          5.01576         4.13622        -1.16715
C          3.97554         6.41902        -1.77512
C          3.90425         7.82655        -1.53702
C          4.87712         5.61698        -0.91751
C          4.97670         8.48263        -0.84624
C          3.73792        10.73073        -1.13159
C          3.82270        12.21513        -1.20867
C          4.92410         9.94512        -0.66631
C          4.93146        12.88789        -0.70874
C          3.89045        15.06601        -1.22209
C          4.00426        16.46320        -1.42720
C          4.98030        14.33976        -0.67445
C          5.17439        17.14741        -0.99270
C          4.20203        19.26097        -1.82946
C          5.26228        18.56563        -1.17188
C          6.48008         2.09789        -1.22174
C          6.21818         3.41734        -0.74483
C          7.56374         1.35971        -0.73023
C          7.21396         4.06773         0.12719
C          5.95912         6.34382        -0.14029
C          6.09537         7.81028        -0.31380
C          7.11777         5.54414         0.39117
C          7.24803         8.51376         0.15282
C          6.22829        10.65713        -0.54895
C          6.21197        12.16589        -0.50482
C          7.37015         9.92102         0.01157
C          7.34724        12.81426         0.16416
C          6.13330        15.00877        -0.19457
C          6.23015        16.42799        -0.33864
C          7.18527        14.24901         0.60928
C          7.36690        17.14563         0.11514
C          6.39546        19.25161        -0.70687
C          7.45649        18.55501        -0.07932
C          8.43343         1.86913         0.38819
C          8.51311         3.37322         0.34665
C          9.79038         1.22908         0.39032
C          9.66568         4.05418         0.60528
C          8.38690         6.28409         0.71866
C          8.42079         7.78207         0.68386
C          9.67059         5.54108         0.51615
C          9.72592         8.49037         0.74265
C          8.52952        10.64826         0.36730
C          8.47888        12.09013         0.47556
C          9.73804         9.93182         0.75240
C          9.62862        12.78370         1.18732
C          8.51335        14.96906         0.69188
C          8.44036        16.45586         0.91122
C          9.68153        14.27998         0.92132
C          9.77304        17.13458         0.81965
C          8.62961        19.25701         0.30319
C          9.80665        18.55440         0.66244
C         10.94991         1.91659         0.51809
C         10.96092         3.37708         0.66518
C         12.22301         1.11736         0.68703
C         12.13188         4.09250         0.79484
C         10.94219         6.29570         0.66993
C         10.91778         7.76630         0.88776
C         12.12156         5.53676         1.25103
C         12.14864         8.41700         1.14239
C         10.89559        10.61250         1.13062
C         10.96642        12.10165         0.85414
C         12.08588         9.83926         1.51222
C         12.16223        12.82846         1.41941
C         10.93753        14.96803         1.10051
C         10.96598        16.40135         1.01913
C         12.15294        14.24417         1.38778
C         12.20979        17.10559         1.12468
C         11.03284        19.24134         0.78694
C         12.23361        18.53959         1.01882
C         13.48869         1.92430         0.48259
C         13.43556         3.44891         0.56015
C         14.76086         1.27980         0.77570
C         14.67932         4.17328         0.87157
C         13.42004         6.29872         1.09294
C         13.39473         7.71270         1.21134
C         14.64977         5.59682         1.04818
C         14.63890         8.45718         1.31788
C         13.37398        10.56278         1.89445
C         13.27772        12.09004         2.14288
C         14.64361         9.86859         1.54853
C         14.63156        12.79779         2.02820
C         13.36909        14.99372         1.57083
C         13.41950        16.39100         1.36348
C         14.63751        14.27885         1.82417
C         14.67540        17.11422         1.40543
C         13.45778        19.23671         1.11664
C         14.68014        18.54833         1.27781
C         15.94200         2.00915         0.83773
C         15.89633         3.47239         0.90851
C         17.19142         1.32251         0.84863
C         17.10849         4.20422         1.05676
C         15.88247         6.32936         1.06024
C         15.87750         7.76728         1.15565
C         17.10113         5.60571         1.03335
C         17.11521         8.50239         1.13165
C         15.86531        10.57687         1.52040
C         15.84818        12.08148         1.43452
C         17.10215         9.91227         1.28759
C         17.12846        12.71695         2.00623
C         15.92391        14.93694         1.34689
C         15.91083        16.43905         1.53014
C         17.15703        14.21308         1.81335
C         17.11639        17.15300         1.53548
C         15.90403        19.25364         1.24033
C         17.13586        18.57644         1.34166
C         18.41624         1.99789         0.95777
C         18.37151         3.44873         1.24897
C         19.65650         1.34620         0.91040
C         19.67550         4.19174         1.34095
C         18.37228         6.32219         0.64010
C         18.36679         7.81852         0.91647
C         19.63939         5.71662         1.30309
C         19.57227         8.51436         0.91487
C         18.36303        10.66630         1.29342
C         18.38303        12.01670         1.57153
C         19.62274         9.94161         1.09689
C         19.69045        12.71013         1.92069
C         18.40229        14.92324         1.94665
C         18.39674        16.47528         1.79803
C         19.68279        14.22674         1.71797
C         19.63753        17.12868         1.38371
C         18.37681        19.25137         1.21427
C         19.60727        18.54424         1.15331
C         20.90595         2.04841         0.92707
C         20.92551         3.47165         1.03130
C         22.13092         1.35524         0.77502
C         22.14652         4.17784         0.85224
C         20.88281         6.31893         0.68772
C         20.85817         7.82252         0.63856
C         22.15886         5.61826         0.80573
C         22.13753         8.51102         0.84217
C         20.84710        10.61488         1.05908
C         20.82289        12.12796         1.07108
C         22.11698         9.93097         0.95863
C         22.17844        12.72199         1.49748
C         20.81930        14.93397         1.41908
C         20.84237        16.39229         1.23232
C         22.14040        14.24394         1.41534
C         22.02444        17.07583         0.86988
C         20.83036        19.22155         0.95407
C         22.04868        18.51147         0.84448
C         23.36382         2.04464         0.65876
C         23.35209         3.47183         0.65954
C         24.60872         1.36063         0.53613
C         24.58761         4.21784         0.23551
C         23.36355         6.34950         0.74642
C         23.34621         7.79563         0.85595
C         24.59956         5.66089         0.64739
C         24.59220         8.48852         1.03471
C         23.35386        10.61635         0.94620
C         23.31553        12.09160         0.67285
C         24.59346         9.93594         1.04658
C         24.62801        12.81388         0.83037
C         23.36770        14.95848         0.97292
C         23.25685        16.35278         0.38050
C         24.60705        14.17571         0.71636
C         24.53627        17.12441         0.59517
C         23.28121        19.21291         0.75635
C         24.53483        18.53047         0.72194
C         25.85018         2.05942         0.53426
C         25.86494         3.49156         0.54219
C         27.08453         1.36831         0.54330
C         27.07285         4.20578         0.64404
C         25.82168         6.34761         0.79930
C         25.79420         7.75466         1.06796
C         27.07227         5.64328         0.75435
C         27.05292         8.41702         1.40029
C         25.82423        10.66354         1.08141
C         25.87474        12.08127         0.89348
C         27.06315         9.97037         1.41970
C         27.09176        12.79574         0.95841
C         25.85710        14.90465         0.45512
C         25.80769        16.42704         0.42559
C         27.12563        14.22919         0.78990
C         27.06449        17.13577         0.64912
C         25.77587        19.23425         0.75226
C         27.03002        18.56558         0.72678
C         28.31487         2.06365         0.56135
C         28.31660         3.49566         0.65194
C         29.55270         1.36871         0.47651
C         29.55200         4.20654         0.69337
C         28.30961         6.35056         0.90410
C         28.31406         7.72162         1.18074
C         29.56980         5.62958         0.83368
C         29.58301         8.44547         1.56232
C         28.36080        10.64911         1.22077
C         28.35012        12.08958         1.08594
C         29.55063         9.92961         1.24708
C         29.53828        12.80131         1.17268
C         28.29241        14.97343         0.89995
C         28.28124        16.41915         0.75685
C         29.56160        14.29643         1.37862
C         29.49775        17.15563         0.78338
C         28.25915        19.26901         0.69901
C         29.49150        18.57821         0.64031
C         30.77232         2.05712         0.44393
C         30.77668         3.49125         0.57042
C         32.01504         1.36735         0.27739
C         32.00711         4.20241         0.52530
C         30.79873         6.33269         0.87735
C         30.83043         7.76094         1.05463
C         32.02750         5.62159         0.67950
C         32.00906         8.47647         0.87126
C         30.80084        10.61772         1.13785
C         30.79046        12.07385         1.28014
C         32.01402         9.93808         0.92367
C         32.09796        12.85827         0.87775
C         30.80769        14.96906         0.83369
C         30.77891        16.44589         0.86601
C         31.97533        14.30330         0.56674
C         32.03871        17.19461         0.44719
C         30.69956        19.27651         0.31016
C         31.90455        18.61245         0.05017
C         33.21901         2.05351         0.15749
C         33.22008         3.50025         0.26245
C         34.46854         1.36147        -0.01092
C         34.41814         4.22177         0.12180
C         33.26673         6.32253         0.64144
C         33.26110         7.77083         0.67464
C         34.46315         5.61090         0.36426
C         34.43428         8.48610         0.45092
C         33.17000        10.67356         0.48366
C         33.16477        12.05714         0.31873
C         34.36095         9.89798         0.05077
C         34.21976        12.73439        -0.54015
C         33.15643        14.98425         0.03882
C         33.16415        16.40193        -0.07693
C         34.25975        14.24303        -0.42338
C         34.23008        17.06484        -0.70890
C         33.01660        19.23539        -0.54925
C         34.18194        18.50592        -0.90346
C         35.66098         2.03564        -0.23473
C         35.62082         3.51276        -0.36115
C         36.91797         1.37372        -0.33225
C         36.90037         4.26670        -0.51969
C         35.76469         6.30566         0.46261
C         35.74348         7.83956         0.55562
C         36.99440         5.68602        -0.07719
C         37.00958         8.60860         0.29323
C         35.62569        10.62991        -0.31493
C         35.60624        12.14968        -0.18661
C         36.93080         9.97899        -0.19520
C         36.69999        12.76783        -1.03030
C         35.38124        14.89865        -0.99067
C         35.36273        16.31803        -1.14915
C         36.54147        14.15328        -1.43350
C         36.47250        16.99448        -1.74168
C         35.28004        19.14846        -1.49147
C         36.43182        18.42601        -1.90492
C         38.12983         2.06154        -0.48289
C         38.16150         3.49760        -0.57806
C         39.38955         1.37296        -0.55109
C         39.33749         4.19201        -0.77909
C         38.17168         6.36555        -0.25820
C         38.31266         7.80966         0.03786
C         39.25246         5.67091        -1.09064
C         39.50724         8.55685        -0.50749
C         38.16244        10.85896        -0.31503
C         37.87765        12.07302        -1.19078
C         39.43360        10.07607        -0.71614
C         38.89811        12.59029        -2.10909
C         37.60614        14.83404        -2.04344
C         37.60245        16.26058        -2.17882
C         38.74696        14.07952        -2.57085
C         38.72399        16.94180        -2.75899
C         37.52767        19.08114        -2.48867
C         38.67345        18.36551        -2.90789
C         40.56454         2.05833        -0.71537
C         40.58433         3.48739        -0.85356
C         41.77059         4.20823        -1.04889
C         40.59334         6.36289        -1.08718
C         40.59937         7.79965        -1.15318
C         41.76280         5.61470        -1.14449
C         41.64568         8.51985        -1.72063
C         40.43502        10.66602        -1.63429
C         40.23878        11.99002        -2.18127
C         41.55098         9.90419        -1.97212
C         41.24430        12.69288        -2.83373
C         39.96160        14.78802        -2.99934
C         39.90088        16.23473        -3.16270
C         41.11548        14.05100        -3.21458
C         40.97335        16.95687        -3.70938
C         39.78376        19.05164        -3.47399
C         40.90972        18.35108        -3.86696
O         20.78928         7.01500        -0.60951
O         14.83376        13.69068         3.16559
O         37.99080         8.31183         1.35941
O         36.04024         4.03504        -1.69977
O         38.37049        12.95505        -3.42092
O          3.75736         3.41141        -0.97932
O         34.74283        10.07112        -1.39346
O          4.70410         5.96012         0.49526
O         31.72571        16.98299         1.85942
O         35.88472         6.99781         1.74147
O         25.84017        15.59236        -0.84959
O          6.69525         4.60437         1.42041
O         18.43647        15.84578         3.11936
O          3.87664        10.31616         0.29365
O         19.00727         3.71630         2.56754
O         27.00583         9.18961         2.66604
O         13.49409         2.73151        -0.73474
O         31.74308        12.58099         2.26747
O         12.58828         9.90532         2.92072
O         10.46005         5.95187        -0.67106
O          6.58596        11.43025        -1.74427
O         40.06374         9.50052         0.47267
O         23.03908        14.87081         2.41465
O          8.24642         7.02190         1.96641
O         15.76751        12.20467         0.02362
O         23.10524        16.17555        -1.06649
H         23.99689        15.92402        -1.41281
O          7.99606        16.59247         2.35224
H          8.78418        16.41364         2.91087
O         19.85588        12.46358         3.34070
H         20.83079        12.43648         3.53217
O         11.87474         5.47621         2.69510
H         11.89832         6.39145         3.04965
O         35.84523        12.46276         1.20172
H         36.77285        12.18402         1.41446
O          1.83593        14.53047        -0.15765
H          1.81441        15.48459         0.06905
O         19.66530         6.18124         2.67501
H         19.25943         5.46750         3.22373
O          6.69065        14.19111         1.99533
H          6.82398        15.09928         2.37133
O         17.08390        12.55063         3.45913
H         18.00322        12.67220         3.80196
O         20.48633        12.57837        -0.25976
H         21.20746        12.30223        -0.87354
O         38.42515        11.40411         1.02336
H         38.87964        10.67809         1.51852
O         23.01239        12.23661        -0.75584
H         23.71707        11.77705        -1.25960
O         29.61069        14.49060         2.83116
H         30.43109        14.04205         3.14317
O         12.82494        12.23561         3.51276
H         13.35221        12.97461         3.90771
O         12.24782         0.54052         2.00619
H         11.83182         1.16595         2.63437
O         38.78902         5.77775        -2.48125
H         38.00575         5.19245        -2.58266
O         33.91272        12.49871        -1.93321
H         34.05692        11.53407        -2.10984
O         22.44473        12.36771         2.87566
H         22.99899        13.09710         3.24590
O         16.07661        14.76012        -0.09369
H         15.98789        13.76129        -0.28685
O         11.10271        12.22819        -0.60008
H         11.99056        11.90755        -0.86606
O         18.39511         6.09525        -0.79058
H         19.16759         6.59006        -1.16361
O         29.64763         8.35805         3.02908
H         28.78514         8.70700         3.36277
O          7.78203         1.48947         1.64757
H          7.00102         2.07314         1.76527
O          9.39540        12.64309         2.60681
H          8.48719        12.97434         2.79003
O         24.51141         4.24212        -1.25666
H         24.50677         3.30684        -1.55490
H          2.89547         2.34530        -5.86166
H          2.38960         4.63486        -5.08253
H          4.42420         0.86263        -4.58941
H          1.45125         6.12465        -4.07200
H          1.12050         8.46399        -3.46697
H          0.85132        10.30923        -2.98728
H          0.71316        12.70386        -2.59171
H          0.83307        14.61729        -2.88761
H          1.16974        16.99614        -3.34115
H          2.30460        19.11852        -2.84414
H          6.01339         0.58726        -2.73019
H          4.28584        20.34831        -1.96809
H          7.72647         0.33856        -1.10618
H          6.47123        20.33993        -0.84578
H          9.81992         0.12893         0.35620
H          8.67301        20.34722         0.16795
H         12.22694         0.26123        -0.03784
H         11.05670        20.33536         0.67675
H         14.77901         0.19009         0.92239
H         13.46188        20.33238         1.02161
H         17.18848         0.22952         0.72291
H         15.89277        20.34221         1.08391
H         19.67536         0.25377         0.77926
H         18.38173        20.34356         1.08743
H         22.12338         0.25610         0.73196
H         20.83481        20.31895         0.87854
H         24.61635         0.26097         0.52809
H         23.27100        20.31238         0.77657
H         27.08775         0.26850         0.51497
H         25.76110        20.33303         0.79661
H         29.54561         0.27166         0.39482
H         28.25200        20.36753         0.65256
H         32.00540         0.26927         0.20841
H         30.63074        20.35437         0.09885
H         34.47063         0.26243         0.04765
H         32.97248        20.31057        -0.77959
H         36.93688         0.27574        -0.25906
H         35.25211        20.23802        -1.64198
H         39.39579         0.27623        -0.47010
H         37.50028        20.17342        -2.61705
H         41.51882         1.51365        -0.76465
H         42.72933         3.67217        -1.09105
H         42.72960         6.13437        -1.21135
H         42.51092         7.98224        -2.13277
H         42.34694        10.35559        -2.57966
H         42.23520        12.23536        -2.95782
H         42.01724        14.54660        -3.59958
H         41.88202        16.43380        -4.03586
H         39.73600        20.14370        -3.59030
H         41.76566        18.88338        -4.30454
