         234
 CSIRO Nanostructure Databank - Neutral Graphene Oxide Data Set
C          1.26442         2.00544        -0.46617
C          1.22393         3.38997        -0.27378
C          2.47709         1.32606        -0.51819
C          2.41492         4.13220        -0.13221
C          1.17739         6.36481        -0.12688
C          1.10005         7.70355         0.09772
C          2.39594         5.59782         0.05771
C          2.22800         8.46541         0.65903
C          1.05247        10.76479         0.23792
C          1.11644        12.09998         0.01913
C          2.24061         9.99033         0.65255
C          2.34930        12.87333         0.07363
C          1.15410        15.08141        -0.07913
C          1.14871        16.40885        -0.36922
C          2.35069        14.26492        -0.06728
C          2.36992        17.11089        -0.90660
C          2.47155        18.59129        -0.59050
C          3.69530         2.02779        -0.35050
C          3.64129         3.43372        -0.14265
C          4.95315         1.32687        -0.39573
C          4.94389         4.19053        -0.10104
C          3.55856         6.27449         0.36074
C          3.54244         7.70462         0.73341
C          4.82934         5.54191         0.57615
C          4.82116         8.45725         0.47707
C          3.55590        10.72942         0.57660
C          3.59853        12.17102         0.22871
C          4.80696         9.94813         0.32032
C          4.84509        12.81590         0.17919
C          3.64352        14.97744        -0.07336
C          3.63344        16.42866        -0.42470
C          4.91811        14.22436        -0.08704
C          4.90347        17.08192        -0.86486
C          3.66328        19.23172        -0.54031
C          4.94416        18.55245        -0.70253
C          6.16241         1.93651        -0.04319
C          6.09762         3.34403         0.41229
C          7.40890         1.27360        -0.00472
C          7.40632         4.09425         0.65956
C          6.12200         6.28712         0.84359
C          6.12510         7.76527         0.68875
C          7.39759         5.56165         0.61909
C          7.29917         8.44197         0.55341
C          6.08335        10.69819         0.38405
C          6.08874        12.06573         0.33297
C          7.32362         9.89271         0.22193
C          7.36010        12.85335         0.58193
C          6.14421        14.88207        -0.29266
C          6.17717        16.29879        -0.74969
C          7.38835        14.23156        -0.04659
C          7.42094        17.06577        -0.62624
C          6.15572        19.18664        -0.61952
C          7.41325        18.45786        -0.61675
C          8.63654         1.96017         0.20296
C          8.65756         3.37907         0.41270
C          9.88158         1.28260         0.10396
C          9.85901         4.11697         0.29830
C          8.58827         6.24053         0.41428
C          8.59609         7.71782         0.61660
C          9.82443         5.53212         0.26657
C          9.87456         8.46908         0.46030
C          8.63001        10.63828         0.19041
C          8.63132        12.09083         0.31753
C          9.89618         9.93399         0.34145
C          9.84762        12.77191         0.32486
C          8.62228        14.89298        -0.15513
C          8.71305        16.30526        -0.74134
C          9.83611        14.20659         0.16000
C          9.88004        17.07821        -0.11617
C          8.64882        19.19208        -0.53501
C          9.90450        18.58642        -0.43230
C         11.11516         1.96120         0.14051
C         11.12738         3.41907         0.18966
C         12.33209         1.25023         0.06985
C         12.32437         4.11765         0.16583
C         11.06838         6.25976        -0.08537
C         11.07518         7.76204        -0.07328
C         12.36799         5.56409         0.08886
C         12.36989         8.51263        -0.03931
C         11.11286        10.62402         0.39088
C         11.10401        12.05964         0.38452
C         12.37070         9.92763         0.35671
C         12.33362        12.75315         0.43933
C         11.09408        14.87453         0.11964
C         11.14213        16.26215        -0.26611
C         12.30014        14.16575         0.30045
C         12.34600        16.76204        -0.70444
C         11.05517        19.41595        -0.27516
C         12.37452        18.96087        -0.58656
C         13.59246         1.90785         0.10002
C         13.63386         3.41413        -0.07334
C         14.77889         1.21124         0.09800
C         14.79068         4.06702         0.68521
C         13.55304         6.25724         0.24297
C         13.66510         7.72386         0.09577
C         14.74102         5.58790         0.89235
C         14.87271         8.46266         0.55097
C         13.60269        10.60952         0.50171
C         13.59086        12.04166         0.56855
C         14.85806         9.89316         0.60262
C         14.82355        12.73011         0.68940
C         13.55198        14.92893         0.38386
C         13.60559        16.23785        -0.28014
C         14.83916        14.21025         0.67795
C         14.78724        16.96979        -0.35106
C         13.64319        19.28174        -0.15390
C         14.81052        18.44096        -0.49625
C         16.14513         1.83654         0.23785
C         16.08838         3.33637         0.55235
C         17.11723         1.49247        -0.85725
C         17.27629         4.15753         0.24652
C         16.05306         6.30434         0.62907
C         16.07452         7.75493         0.71256
C         17.22082         5.59927         0.46859
C         17.32338         8.47640         0.83417
C         16.07909        10.61786         0.80958
C         16.04672        12.03892         0.80459
C         17.34635         9.91700         0.94135
C         17.28575        12.82801         1.06259
C         16.08528        14.91247         0.31982
C         16.04617        16.26468        -0.11971
C         17.30572        14.24497         0.55466
C         17.26806        16.91021        -0.43155
C         16.00506        19.04527        -0.76381
C         17.21742        18.24593        -1.14893
C         18.20735         2.29704        -1.11606
C         18.28244         3.63464        -0.53563
C         19.25975         1.87828        -2.00296
C         19.31858         4.58682        -1.06469
C         18.51027         6.30647         0.54893
C         18.53135         7.76049         0.73760
C         19.71008         5.62087        -0.02316
C         19.77747         8.43632         0.71591
C         18.58040        10.58796         1.17948
C         18.58429        12.09210         1.35408
C         19.79274         9.81101         1.14484
C         19.83503        12.93865         1.26488
C         18.50780        14.94766         0.35153
C         18.48802        16.26438        -0.18377
C         19.76116        14.37017         0.89411
C         19.75530        16.98349        -0.50982
C         18.47176        19.04719        -0.98922
C         19.69063        18.44920        -0.74745
C         20.37007         2.67489        -2.28008
C         20.48955         3.97766        -1.77634
C         21.54124         4.89338        -2.12098
C         21.05638         6.31626        -0.12955
C         20.99779         7.75971         0.36602
C         21.70634         6.08597        -1.47476
C         22.21470         8.37161         0.61833
C         21.07333        10.25654         1.60239
C         21.04305        12.54687         1.79293
C         22.25296         9.58783         1.32722
C         22.29456        13.21581         1.55017
C         21.07434        15.14012         0.71853
C         21.08399        16.41337        -0.07558
C         22.32725        14.40226         0.89201
C         22.21075        17.33745         0.10595
C         20.89024        19.21259        -0.70667
C         22.10702        18.65983        -0.27147
O         17.74240        12.60888         2.44458
O          6.56115         3.53142         1.75246
O         20.61283        16.25990        -1.46618
O          2.89664        10.50198         1.86220
O         19.40918         5.41231         1.37438
O          3.64469        16.07892         0.97598
O          5.49821        16.52308        -2.07063
O         13.20610         8.23887        -1.20167
O          7.92093        10.15180        -1.10234
O         13.93399         3.61470        -1.44378
O         15.40088         3.45382         1.86610
O         20.30228        15.25686         1.95446
O          9.43202         8.04006         1.81031
O         12.34568        17.89027        -1.51180
O         10.85801         7.05377        -1.32240
O          2.76290         7.96469         1.93101
O         14.11754        14.89364         1.75821
O          5.31406         5.71935         1.93316
O          4.73600         9.07827        -0.86906
O         21.16069        11.33772         2.47905
O          5.28178         4.51805        -1.49044
H          5.09602         3.73058        -2.04493
O          7.34470        13.08323         2.04341
H          8.04573        13.73879         2.24905
O          9.60212        17.05903         1.31945
H         10.34731        17.49623         1.78264
O         14.49655         5.80224         2.31921
H         14.99738         5.09584         2.79233
O         18.64199         5.40328        -2.09628
H         18.31322         4.79425        -2.79184
O         16.71099         1.20960         1.43697
H         16.29736         1.66595         2.20506
O         21.93701         5.60958         0.79835
H         21.40053         5.43663         1.60624
O          2.34619        16.97207        -2.35666
H          1.59540        17.49717        -2.70294
O          8.98963        16.16877        -2.15975
H          8.16592        15.88176        -2.60807
O         17.09726        17.93207        -2.58610
H         17.91812        17.46496        -2.85221
H          0.32335         1.44956        -0.58085
H          0.24852         3.89246        -0.23332
H          2.49770         0.23878        -0.67773
H          0.29161         5.85247        -0.52779
H          0.17670         8.23806        -0.16881
H          0.08962        10.24628         0.12417
H          0.19310        12.62883        -0.25660
H          0.20327        14.60466         0.20288
H          0.20150        16.96912        -0.32635
H          1.53908        19.16346        -0.46169
H          4.94485         0.25773        -0.65403
H          3.68835        20.31719        -0.35485
H          7.44617         0.20175        -0.24931
H          6.19260        20.27992        -0.49506
H          9.87989         0.18728        -0.00542
H          8.59469        20.28990        -0.60418
H         12.30335         0.15655        -0.05796
H         10.89430        20.47569        -0.01611
H         14.74833         0.11480         0.21765
H         13.82104        20.18408         0.45044
H         17.03556         0.50745        -1.34094
H         16.07171        20.14296        -0.79915
H         19.19707         0.87151        -2.43998
H         18.43011        20.12955        -1.18624
H         21.17665         2.26833        -2.90871
H         22.20305         4.63400        -2.96324
H         22.49716         6.77967        -1.79741
H         23.14843         7.84855         0.37166
H         23.20412         9.98960         1.69896
H         23.21842        12.67481         1.79655
H         23.27157        14.82733         0.52525
H         23.12927        16.97208         0.58598
H         20.83651        20.28471        -0.94318
H         22.98069        19.31910        -0.16743
