         280
 CSIRO Nanostructure Databank - Neutral Graphene Oxide Data Set
C         30.32506        31.63638         0.59533
C         30.33835        32.80005         0.18189
C         30.44611        35.97762        -0.93867
C         30.49918        37.19137        -1.12670
C         30.69392        40.43206        -0.97470
C         30.17807        41.50879        -0.63669
C         32.73891        28.98334         1.75691
C         31.64469        29.47273         1.45572
C         32.70538        31.73889         1.30779
C         31.33114        30.89023         1.33950
C         32.68523        33.14597         0.72947
C         31.39922        33.80865         0.20665
C         32.84954        35.76279        -0.80913
C         31.52964        35.00823        -0.69215
C         32.91713        37.18853        -1.39381
C         31.57553        38.04785        -1.70486
C         32.96327        40.10316        -1.36005
C         31.72575        39.49284        -1.25071
C         33.02682        41.58849        -1.47616
C         30.01225        42.88498        -0.37300
C         32.39554        44.00315        -0.30519
C         31.22398        43.63308        -0.28561
C         35.38793        27.24168         1.30794
C         35.39590        28.68451         1.71640
C         34.10069        29.50444         1.82758
C         35.16881        31.47839         0.57607
C         34.02733        31.01739         1.48680
C         35.23824        33.00770         0.32498
C         33.96638        33.79948         0.27177
C         35.34575        35.87748        -0.16468
C         33.95681        35.34169         0.18588
C         35.48319        37.22248        -0.81614
C         34.24494        37.90596        -1.37867
C         35.52551        40.21429        -1.24123
C         34.26635        39.41015        -1.49422
C         35.38012        41.59820        -0.63569
C         34.03616        42.25302        -0.58815
C         35.04690        44.59751        -0.18489
C         33.82944        43.71898        -0.23111
C         35.21599        46.05373        -0.33837
C         37.67421        26.98803         0.42663
C         36.38683        26.57960         1.00849
C         37.62081        28.50458         0.23350
C         36.41299        29.28364         0.66650
C         37.81425        31.47829         0.59921
C         36.52111        30.77597         0.84615
C         37.80116        32.99389         0.71707
C         36.50607        33.74374         0.64873
C         37.79360        35.98326         0.66854
C         36.49310        35.26205         0.59823
C         37.77667        37.46960         0.38680
C         36.63215        38.09653        -0.34654
C         37.96137        40.33989        -0.29842
C         36.81232        39.51479        -0.83592
C         37.89901        41.83612        -0.35887
C         36.59012        42.48448        -0.64951
C         37.66251        44.78079        -0.18040
C         36.42139        43.97176        -0.52744
C         37.68209        46.28208        -0.48535
C         36.26937        46.68902        -0.42016
C         40.29419        24.54160         1.65451
C         39.23315        25.03639         1.26619
C         40.32024        27.10945         0.50062
C         38.98883        26.29777         0.55848
C         40.25926        28.54658         0.03354
C         38.91635        29.24941        -0.13093
C         40.19190        31.61380        -0.47065
C         38.94659        30.76500        -0.09399
C         40.33466        32.97242         0.23030
C         39.11161        33.73294         0.63853
C         40.34719        35.99116         0.47725
C         39.04999        35.22182         0.25054
C         40.35085        37.49125         0.37985
C         39.07464        38.21827         0.62907
C         40.38242        40.48311         0.73416
C         39.06076        39.71686         0.55633
C         40.24121        42.00656         0.49666
C         39.02446        42.57753        -0.17462
C         40.25057        44.84818        -0.21769
C         38.96889        44.06842        -0.03065
C         40.23525        46.31138         0.24905
C         38.94209        47.04289        -0.24320
C         40.07605        48.98663         0.59647
C         39.04856        48.46166         0.13581
C         42.90531        24.71273         1.91448
C         41.54041        25.23670         1.97074
C         42.91136        27.35263         1.12965
C         41.52757        26.65117         1.31550
C         42.81389        28.75990         0.48333
C         41.49687        29.41953         0.18269
C         42.81670        31.51952        -0.53881
C         41.50330        30.78536        -0.48585
C         42.82659        33.03631        -0.48892
C         41.53488        33.77016        -0.23090
C         42.73181        35.98433        -0.47939
C         41.58991        35.23372         0.13924
C         42.71343        37.48290        -0.43190
C         41.48546        38.18381         0.05349
C         42.78032        40.37381        -0.30538
C         41.66352        39.63285         0.46740
C         42.83928        41.88503        -0.01323
C         41.58453        42.67976         0.20394
C         42.82778        44.91368         0.06705
C         41.56846        44.13776        -0.18299
C         42.80377        46.26965         0.25373
C         41.54068        47.03332        -0.16766
C         42.54264        48.79514         1.37464
C         41.51570        48.89258         0.35082
C         43.87891        25.14616         1.29533
C         45.32852        27.07186         0.17728
C         44.05304        26.41955         0.58107
C         45.36083        28.61010         0.15451
C         44.04591        29.26195        -0.30483
C         45.45132        31.54390        -0.34217
C         44.14480        30.79455        -0.40129
C         45.48397        33.05624        -0.11993
C         44.10943        33.78589        -0.19378
C         45.25446        35.98829        -0.95380
C         44.05807        35.28025        -0.37492
C         45.21431        37.54833        -1.11273
C         44.05494        38.16838        -0.31756
C         45.35222        40.33859        -0.58630
C         44.09259        39.63525        -0.06447
C         45.38320        41.85537        -0.28281
C         44.10159        42.64777        -0.33691
C         45.38137        44.77215         0.51107
C         44.10691        44.14462         0.00307
C         45.33489        46.25930         0.92007
C         44.03938        46.99600         0.75480
C         43.64437        48.23537         1.44565
C         47.75549        27.24085         0.53830
C         46.70055        26.60763         0.37825
C         47.97606        28.54862        -0.13246
C         46.67883        29.34171         0.06502
C         47.79973        31.31329        -1.18910
C         46.82876        30.86577        -0.06817
C         47.81352        32.88713        -1.31116
C         46.55885        33.67891        -1.02574
C         47.81001        35.93993        -1.29849
C         46.51179        35.19519        -1.16835
C         47.83415        37.39614        -0.86099
C         46.57641        38.20347        -0.81611
C         47.64527        40.03931         0.52568
C         46.57212        39.54200        -0.14618
C         47.52832        41.39429         1.17812
C         46.42181        42.34108         0.70485
C         47.54077        44.34974         1.97549
C         46.39039        43.81087         1.13418
C         47.50952        45.82327         1.94864
C         46.49733        46.51893         1.78125
C         50.60340        28.85494        -0.24598
C         49.22689        29.23232        -0.58002
C         50.47185        31.44614        -1.35512
C         49.20918        30.68581        -1.08615
C         50.45598        32.96509        -1.27723
C         49.12026        33.65890        -1.21787
C         50.35001        35.91775        -0.99658
C         49.08922        35.17028        -1.38592
C         50.20376        37.00732         0.07144
C         48.91019        37.79996         0.12092
C         50.01786        39.70327         1.54556
C         48.78921        39.12101         0.87212
C         50.02894        41.17462         1.92366
C         48.72824        41.95965         1.91895
C         50.11640        43.96535         2.17121
C         48.73443        43.48540         2.23295
C         51.62994        29.55018        -0.21028
C         52.88084        31.78727        -0.78468
C         52.10911        30.59872        -1.13353
C         52.85750        32.97957        -1.08687
C         51.72217        33.78024        -1.69348
C         52.68401        35.84800        -0.34598
C         51.67805        35.22837        -1.22266
C         52.63947        36.96101         0.20223
C         51.42659        37.56446         0.78461
C         52.46393        39.86942         1.42709
C         51.35477        38.91250         1.42852
C         52.50493        41.09472         1.58040
C         51.42980        41.95371         2.06068
C         51.19529        43.39085         1.98841
O         46.86956        33.19923        -2.36136
O         42.02201        33.58396        -1.58326
O         51.17199        36.20773        -2.16687
O         36.49398        28.80634        -0.67837
O         31.81059        31.62199         2.45722
O         41.25586        35.52378         1.52124
O         44.06493        34.69690         0.96418
O         34.26166        30.54587         2.83308
O         46.27771        41.50228         1.90257
O         32.40923        34.79749        -1.81005
O         40.60176        27.45477        -0.87670
O         44.45001        26.43976        -0.78297
O         31.86389        34.05132         1.55447
O         35.08549        39.97671        -2.59084
O         37.02110        35.74852         1.86656
O         48.44211        28.40403        -1.48381
O         38.50926        46.70704        -1.58062
O         45.21543        40.18782        -1.97995
O         38.81367        39.05222         1.83168
O         37.96889        39.75346        -1.66607
O         39.84891        42.31750         1.86525
O         50.58525        38.90697         2.63090
O         41.50039        47.11585        -1.59106
O         40.04925        33.20648         1.62883
O         42.17833        30.94588        -1.74640
O         38.18749        44.48990         1.14751
O         48.47244        35.69579        -2.58083
O         47.50315        38.27907        -1.96490
O         44.91027        31.14831        -1.61267
O         48.34810        37.86630         1.46933
O         37.43788        30.98820         1.94721
O         42.03199        39.43861         1.84663
O         40.91528        44.47583        -1.45472
O         36.67380        38.09588         1.10914
O         42.15451        29.60941         1.48147
O         32.40087        42.21424        -2.31366
O         36.53295        43.36328        -1.83789
O         34.54556        41.49396         0.55293
O         44.29123        38.70600         1.02084
O         42.47645        42.35491         1.31714
O         34.59725        33.30200        -0.94663
O         48.48547        42.51197         3.24936
O         44.94282        42.49538        -1.50606
O         42.47020        36.74035        -1.67484
O         35.75881        36.00248        -1.55425
O         50.59550        36.55800         1.40034
O         45.12758        44.73167        -0.89561
O         33.75397        37.23353        -2.57801
O         50.76993        41.38275         3.17264
O         46.32893        43.87525         2.59316
O         41.28832        26.40551         2.74826
O         45.58167        35.44956        -2.26532
O         46.00055        29.10896         1.35563
O         45.11786        47.13035        -0.20343
O         49.88243        33.36427        -0.00038
O         38.26465        26.28469        -0.67983
O         49.83407        30.79390        -2.44845
O         37.04877        33.33059         1.92334
O         38.63833        30.02157        -1.31711
O         34.47709        44.08682         1.02472
O         41.93439        49.62534        -0.72513
H         41.28608        49.56188        -1.45542
O         38.87179        35.20084        -1.19879
H         39.59290        34.69189        -1.63257
O         52.48120        30.09933        -2.35176
H         51.83400        29.42790        -2.65169
O         33.66468        35.96109         1.44388
H         32.92569        35.47308         1.88553
O         34.73465        30.88182        -0.66915
H         35.26843        31.22101        -1.41970
O         42.53848        40.24408        -1.71396
H         43.44029        40.25681        -2.16438
O         43.79805        28.78498        -1.63526
H         44.26500        29.37450        -2.27103
O         51.80013        33.72149        -3.09943
H         52.41047        34.41260        -3.42927
O         40.22650        46.28878         1.67799
H         39.48596        45.71743         1.98990
O         39.91125        32.04912        -1.81803
H         40.66415        31.76705        -2.39494
O         42.81001        47.48903        -2.07941
H         43.24036        46.62118        -2.28171
O         28.83267        43.46151        -0.16524
H         28.09762        42.82322        -0.25813
O         43.43413        27.60778         2.44116
H         42.80054        28.17731         2.92983
O         45.99025        33.23504         1.21377
H         45.53025        34.00252         1.63269
O         31.40871        38.11240        -3.10512
H         32.22087        37.76311        -3.54256
O         40.66442        40.64724         2.21880
H         40.00984        40.06707         2.70758
O         44.87117        37.79825        -2.47405
H         45.69370        37.99530        -2.97541
O         36.06602        28.74902         2.96423
H         35.64450        29.43213         3.53337
O         47.44552        31.28152         1.14412
H         46.92432        30.94073         1.90369
O         47.25576        30.77851        -2.38917
H         47.90471        30.91649        -3.11399
