         204
 CSIRO Nanostructure Databank - Neutral Graphene Oxide Data Set
C        -11.00322         0.76220        -0.80144
C         -9.80171         1.51891        -0.47631
C         -8.57889         0.81323        -0.21972
C         -7.45255         1.48362         0.24087
C         -6.27863         0.72415         0.81069
C         -4.97275         1.48470         0.73957
C         -3.72574         0.74926         0.82982
C         -2.48942         1.42928         0.98573
C         -1.27800         0.72459         0.99198
C          0.01913         1.45984         1.27986
C          1.15094         0.72561         0.57663
C          2.46011         1.46256         0.61103
C          3.65896         0.63846         0.25546
C          4.93351         1.42382         0.15372
C          6.11271         0.70982        -0.08050
C          7.31248         1.39146        -0.46238
C          8.48000         0.63780        -0.78233
C          9.65747         1.32664        -1.22925
C         10.80993         0.53684        -1.57527
C         -9.84186         2.89893        -0.30094
C         -8.66269         3.62831         0.02448
C         -7.45120         2.90676         0.29461
C         -6.23214         3.61062         0.50580
C         -5.00350         2.86837         0.71524
C         -3.76968         3.64540         0.95296
C         -2.46821         2.90234         1.13364
C         -1.20567         3.62674         0.86198
C          0.00738         2.92041         0.87536
C          1.22399         3.58784         0.62824
C          2.47435         2.83845         0.54406
C          3.70825         3.55815         0.28682
C          4.92199         2.84194         0.09749
C          6.13663         3.54101        -0.21914
C          7.31511         2.80536        -0.54126
C          8.51011         3.49770        -0.96544
C          9.65676         2.72620        -1.31297
C         -8.65354         5.03850         0.09332
C         -7.45054         5.74947         0.26706
C         -6.21509         5.02521         0.41310
C         -4.97463         5.75058         0.34744
C         -3.71850         5.05359         0.51427
C         -2.49428         5.69201         0.37341
C         -1.23157         5.01124         0.56274
C         -0.00339         5.70610         0.35297
C          1.22530         4.99428         0.39892
C          2.46470         5.69188         0.18338
C          3.69869         4.96815         0.14961
C          4.92910         5.67096        -0.05605
C          6.13932         4.95974        -0.26378
C          7.35307         5.66915        -0.65983
C          8.50199         4.90137        -1.02952
C         -7.42807         7.17859         0.25599
C         -6.22429         7.87676         0.21760
C         -4.99734         7.14155         0.16990
C         -3.76096         7.85921        -0.15873
C         -2.45347         7.08718        -0.09104
C         -1.20489         7.84770         0.01491
C          0.01090         7.13387         0.11891
C          1.23969         7.81926        -0.06417
C          2.46515         7.08689        -0.07308
C          3.70678         7.77244        -0.29873
C          4.90952         7.09833        -0.19248
C          6.22377         7.83346        -0.08315
C          7.35835         7.05850        -0.69808
C         -6.15778         9.32757         0.18396
C         -4.97769        10.00873         0.10328
C         -3.70745         9.32961        -0.03413
C         -2.49339         9.97686        -0.07171
C         -1.22590         9.27067        -0.09694
C         -0.00667         9.95970        -0.15840
C          1.24071         9.26261        -0.22354
C          2.44284         9.93670        -0.44435
C          3.66249         9.16972        -0.86888
C          4.97311         9.90029        -0.74582
C          6.13027         9.28082        -0.48727
C        -10.99818        -0.57648        -1.00708
C         -9.73722        -1.34223        -1.04749
C         -8.48084        -0.61478        -0.58524
C         -7.34041        -1.41631        -0.10048
C         -6.17359        -0.72043         0.37769
C         -4.96160        -1.38203         0.52588
C         -3.71327        -0.67222         0.70950
C         -2.48340        -1.38984         0.72401
C         -1.25747        -0.68307         0.84868
C          0.00937        -1.41251         0.93458
C          1.20514        -0.72483         1.00564
C          2.47538        -1.39572         1.37018
C          3.79598        -0.63760         1.09065
C          5.09056        -1.33042         0.86749
C          6.13917        -0.71528         0.13904
C          7.32469        -1.45207        -0.12955
C          8.47753        -0.77939        -0.65141
C          9.64315        -1.53517        -0.98294
C         10.79919        -0.82869        -1.46444
C         -9.71428        -2.80600        -1.02314
C         -8.52537        -3.49188        -0.81351
C         -7.35649        -2.79288        -0.30258
C         -6.21190        -3.59842         0.13788
C         -4.93551        -2.85001         0.52057
C         -3.65483        -3.55958         0.40983
C         -2.46130        -2.83931         0.57886
C         -1.22341        -3.55326         0.64396
C         -0.00370        -2.86138         0.89632
C          1.20215        -3.57880         1.04681
C          2.42869        -2.88940         1.43263
C          3.50185        -3.64607         1.83598
C          5.33986        -2.61661         1.37095
C          6.29152        -3.49406         0.80529
C          7.35709        -2.85996         0.10160
C          8.52128        -3.60740        -0.27852
C          9.63639        -2.93694        -0.81701
C         -8.44068        -4.91148        -1.02563
C         -7.25711        -5.63403        -0.86330
C         -6.08237        -4.99396        -0.31573
C         -4.88076        -5.67469        -0.16328
C         -3.65468        -4.97539         0.22008
C         -2.43876        -5.67554         0.29182
C         -1.22070        -4.97710         0.50777
C          0.02013        -5.68847         0.58978
C          1.19448        -4.99538         0.90801
C          2.43268        -5.78455         1.13384
C          3.68986        -5.09080         1.59483
C          5.02902        -5.66924         1.22839
C          6.18713        -4.95410         0.89022
C          7.38460        -5.67753         0.45409
C          8.49929        -5.01409        -0.05285
C         -7.16478        -7.01445        -1.22885
C         -5.97842        -7.71936        -1.08829
C         -4.80058        -7.07309        -0.54568
C         -3.61606        -7.78814        -0.40088
C         -2.46220        -7.18358         0.36045
C         -1.13627        -7.82727         0.05258
C          0.05853        -7.12394         0.29618
C          1.29419        -7.79546         0.16425
C          2.58311        -7.02903         0.29636
C          3.75099        -7.89292         0.73460
C          5.03987        -7.15751         1.10288
C          6.28304        -7.85376         0.71952
C          7.41104        -7.11393         0.46551
C         -5.88404        -9.10953        -1.46302
C         -4.71542        -9.79841        -1.33532
C         -3.52787        -9.16337        -0.81404
C         -2.31576        -9.84449        -0.74768
C         -1.09390        -9.17895        -0.37921
C          0.15153        -9.83318        -0.50463
C          1.35241        -9.15800        -0.21861
C          2.63877        -9.83043        -0.30781
C          3.80385        -9.25053         0.14012
C          5.07616        -9.93093         0.15890
C          6.23840        -9.27420         0.45225
O         -8.75226        -0.80232        -2.01840
O         -6.58802         0.64177         2.25437
H         -5.83970         0.17973         2.68961
O          4.22368        -7.86603         2.09766
O          3.47295         8.98004        -2.32815
H          2.61875         8.51259        -2.45081
O         -2.72299        -7.50188         1.78050
H         -3.56488        -7.06264         2.02808
O          2.84617        -5.89014         2.51489
O         -5.83277        -3.41970         1.54503
O          3.22262        -0.66107         2.41042
O          4.58863        -3.03698         2.47122
O          3.41356         0.11089        -1.11965
H          3.69696         0.80514        -1.75327
O         -3.13191         7.32869        -1.38077
O          2.92769        -6.54907        -1.04824
H          2.80887        -7.29493        -1.67410
O         -3.19853         3.41287         2.30223
O          6.53414         7.86470         1.36289
H          6.59609         6.93376         1.66673
O          0.25333         1.40388         2.70644
H         -0.47730         1.87721         3.15670
O          0.77025         0.69959        -0.83781
H          1.53415         0.29645        -1.31873
H         11.69493        -1.40885        -1.73155
H         11.71308         1.05323        -1.93274
H         10.56601         3.24698        -1.64959
H          9.41045         5.43252        -1.35102
H          8.27661         7.59172        -0.98805
H          7.06659         9.86029        -0.45701
H          4.96861        10.97420        -0.99119
H          2.43145        11.02918        -0.58069
H         -0.00547        11.05695        -0.23859
H         -2.46629        11.07669        -0.02939
H         -4.97833        11.10891         0.12340
H         -7.10321         9.88539         0.25741
H         -8.38141         7.72697         0.22368
H         -9.59145         5.59321        -0.05912
H        -10.78266         3.44528        -0.46520
H        -11.95563         1.31332        -0.82468
H        -11.94244        -1.11783        -1.16902
H        -10.63750        -3.36177        -1.24601
H         -9.33012        -5.42977        -1.41446
H         -8.05305        -7.51693        -1.64021
H         -6.78127        -9.60485        -1.86254
H         -4.65621       -10.85534        -1.63417
H         -2.26641       -10.89471        -1.07238
H          0.18140       -10.88454        -0.82679
H          2.65781       -10.86281        -0.68908
H          5.10450       -10.99347        -0.12435
H          7.19726        -9.80857         0.37566
H          8.33199        -7.61872         0.13580
H          9.37881        -5.60895        -0.34292
H         10.53504        -3.51490        -1.08041
