         490
 CSIRO Nanostructure Databank - Neutral Graphene Oxide Data Set
C         37.57215        50.23961        -0.53553
C         36.40046        50.95982        -0.45043
C         37.60245        53.07021        -0.45827
C         36.43105        52.39100        -0.36952
C         40.09205        48.70261        -0.66419
C         40.05582        50.15384        -0.52943
C         38.84281        50.87808        -0.55941
C         40.12575        53.01560        -0.15770
C         38.90047        52.37657        -0.78306
C         40.17015        54.37831         0.14875
C         42.57063        48.72840        -1.03201
C         41.24001        48.03657        -0.88181
C         42.54135        50.12690        -0.42739
C         41.29007        50.82393        -0.31697
C         42.45721        52.82189         0.57863
C         41.29221        52.23337         0.03016
C         42.46154        54.17928         0.94203
C         41.31704        54.95329         0.70011
C         44.93843        45.78148        -0.31133
C         43.77671        46.52252        -0.63095
C         44.91866        48.59147         0.11639
C         43.72671        47.89193        -0.47571
C         45.02065        50.06442        -0.38777
C         43.71953        50.74484        -0.05646
C         44.95527        52.76364         0.83592
C         43.67112        51.95819         0.84576
C         44.94637        54.12248         1.17278
C         43.66590        54.72343         1.70160
C         44.90307        56.91563         1.69046
C         43.73077        56.21981         1.79754
C         47.51086        44.29473        -0.62350
C         47.45045        45.63282         0.09124
C         46.18002        46.43916        -0.14593
C         47.48653        48.61540        -0.24236
C         46.20637        47.82598        -0.04569
C         47.40143        49.98652         0.37162
C         46.23951        50.69190         0.25572
C         47.39909        52.80302         0.74558
C         46.18038        52.08519         0.65802
C         47.37236        54.19691         0.84988
C         46.15574        54.88651         1.13025
C         47.45789        57.02675         1.63670
C         46.14941        56.29049         1.39136
C         47.47108        58.51896         1.35415
C         49.89309        44.13528         0.02187
C         48.66704        43.62060        -0.69545
C         49.98283        45.64273        -0.06513
C         48.71645        46.39858        -0.37553
C         49.88440        48.43035         0.48757
C         48.74360        47.83558         0.07257
C         49.89047        49.84523         0.93049
C         48.56907        50.60026         1.11988
C         49.84437        52.75628         0.68926
C         48.66903        52.08010         0.77343
C         49.85503        54.18927         0.19177
C         48.59821        54.96243         0.55583
C         49.93015        57.12064         0.99402
C         48.63078        56.41051         0.89457
C         49.93433        58.47820         1.15143
C         48.63735        59.17101         1.16588
C         52.36997        41.33498        -0.68275
C         51.21642        42.04857        -0.54091
C         52.40070        44.17277        -0.18177
C         51.20813        43.45593        -0.27076
C         52.43955        45.60299        -0.02038
C         51.17230        46.29531         0.09942
C         52.42394        48.48729         0.20241
C         51.20564        47.69534         0.65773
C         52.40796        49.88580         0.25100
C         51.18996        50.57524         0.77588
C         52.38786        52.80465         0.42368
C         51.15424        52.07036         0.81107
C         52.31666        54.27460         0.27044
C         51.14911        54.93458         0.47918
C         52.45200        57.08871         0.79729
C         51.19079        56.31188         1.10708
C         52.43952        58.52351         1.02011
C         51.20523        59.20525         1.23480
C         52.43649        61.29168         1.48081
C         51.23737        60.59018         1.47987
C         54.98152        39.89321        -0.93370
C         54.92543        41.28452        -0.79078
C         53.66516        41.93811        -0.37233
C         54.90970        44.20590        -0.49247
C         53.68496        43.45697        -0.16326
C         54.89450        45.63605        -0.39955
C         53.65102        46.32833        -0.09792
C         54.85248        48.53051        -0.20188
C         53.63990        47.78089        -0.05049
C         54.83166        49.92466        -0.21601
C         53.59770        50.63992        -0.03315
C         54.77607        52.83165        -0.15894
C         53.58349        52.06862        -0.00605
C         54.82150        54.18974         0.08352
C         53.57724        55.01914        -0.05874
C         54.89544        57.09844         0.45308
C         53.61671        56.42067         0.49482
C         54.90791        58.55196         0.66558
C         53.65724        59.24907         0.95500
C         54.90876        61.40567         1.16933
C         53.66222        60.65346         1.19559
C         55.01737        62.70114         1.60511
C         57.41614        39.91125        -1.08637
C         56.21722        39.21802        -1.01541
C         57.36218        41.38473        -1.41225
C         56.09347        42.07632        -0.94680
C         57.26062        44.25121        -1.39662
C         56.06774        43.48674        -0.86112
C         57.28184        45.70948        -0.98566
C         56.10649        46.36383        -0.55461
C         57.38023        48.56185        -0.64184
C         56.18417        47.80650        -0.08785
C         57.36207        50.00757        -0.70266
C         56.13519        50.71257        -0.14302
C         57.21998        52.91518        -0.79999
C         55.94533        52.10537        -0.77092
C         57.30867        54.20537        -0.34692
C         56.13160        54.85630         0.39017
C         57.34853        57.07737         0.33312
C         56.05868        56.37102         0.26750
C         57.31906        58.56086         0.16458
C         56.08003        59.26086         0.55361
C         57.43018        61.28674         1.17368
C         56.12658        60.77163         0.52684
C         57.44967        62.80013         1.27385
C         56.25699        63.42422         1.54663
C         59.99181        37.22601        -0.49346
C         58.79960        37.85239        -0.83596
C         59.87158        40.03925        -0.69221
C         58.69280        39.26028        -0.89954
C         59.82327        41.48039        -0.75151
C         58.59604        42.14615        -1.00804
C         59.75106        44.28136        -0.96245
C         58.55631        43.53835        -1.05722
C         59.71849        45.67000        -1.44877
C         58.47036        46.42713        -1.20139
C         59.70721        48.58557        -1.54029
C         58.50036        47.84994        -1.06482
C         59.81656        50.04348        -1.12746
C         58.46924        50.74119        -1.08566
C         59.67825        52.99004        -1.47862
C         58.35477        52.20917        -1.51765
C         59.73104        54.34576        -0.87691
C         58.57310        54.93706        -0.39657
C         59.85638        57.13437        -0.22382
C         58.63162        56.34693         0.05480
C         59.88834        58.52583         0.00327
C         58.62560        59.29259         0.10816
C         59.87819        61.37710         0.58089
C         58.67829        60.70070         0.54051
C         59.89023        62.78616         0.94467
C         58.72501        63.48695         1.21652
C         59.97489        65.58765         1.55587
C         58.80631        64.94042         1.38276
C         62.33719        35.97116         0.81643
C         62.35241        37.34132         0.34282
C         61.15190        37.96882        -0.20788
C         62.27051        40.18110        -0.16136
C         61.09611        39.39202        -0.36522
C         62.23537        41.58646        -0.23318
C         60.99865        42.25002        -0.53054
C         62.18863        44.47791        -0.50377
C         60.98066        43.66998        -0.65936
C         62.24018        45.77013        -0.98794
C         61.03790        46.36265        -1.63509
C         62.34253        48.51597        -2.07526
C         60.98458        47.84989        -1.84992
C         62.24488        50.05280        -2.08485
C         60.94987        50.77193        -1.84691
C         62.26029        52.93798        -1.40549
C         60.97342        52.26603        -1.68948
C         62.22267        54.35124        -1.14754
C         61.00122        55.03496        -0.87633
C         62.26355        57.16683        -0.66511
C         61.03753        56.43783        -0.58294
C         62.30562        58.54985        -0.33085
C         61.10315        59.24616        -0.02078
C         62.34530        61.33477         0.32619
C         61.13403        60.67905         0.25354
C         62.40543        62.73047         0.80011
C         61.15881        63.58353         0.74678
C         62.54204        65.60603         1.37037
C         61.26754        64.81088         1.67350
C         62.63157        66.96886         1.73408
C         64.69741        36.06927         1.49729
C         63.44894        35.37385         1.34964
C         64.61529        37.57393         1.39948
C         63.52678        38.06371         0.46412
C         64.68511        40.32443         0.66086
C         63.53978        39.48108         0.08543
C         64.30405        41.69183         0.94508
C         63.33235        42.38472         0.26859
C         64.66878        44.59907         0.07185
C         63.30842        43.91566         0.35989
C         64.67097        45.91750        -0.43783
C         63.44878        46.58638        -0.86257
C         64.69416        48.70161        -1.18998
C         63.47717        47.92550        -1.25940
C         64.72872        50.09155        -1.47681
C         63.56224        50.83265        -2.11695
C         64.69445        52.97620        -1.49577
C         63.45981        52.25873        -1.58064
C         64.67913        54.39500        -1.39686
C         63.45064        55.07878        -1.19181
C         64.67927        57.22708        -1.15284
C         63.46751        56.49140        -1.00421
C         64.68451        58.63064        -0.89657
C         63.55153        59.24777        -0.39740
C         64.83421        61.40417        -0.21533
C         63.65963        60.58184         0.28391
C         64.78812        62.86315        -0.06658
C         63.68821        63.49477         0.70816
C         64.93907        65.66799         0.75124
C         63.69102        64.97017         0.87704
C         65.02068        67.00956         1.23381
C         63.83959        67.64365         1.68680
C         67.07558        33.55763         2.90045
C         65.90676        34.12077         2.43796
C         67.19600        36.10412         1.60183
C         65.87122        35.44311         1.90675
C         67.17739        37.61232         1.61803
C         65.93453        38.32152         1.33506
C         67.17397        40.50396         1.51129
C         65.89758        39.68835         1.23107
C         67.22031        41.92784         0.93377
C         66.12640        42.77826         1.07084
C         67.16437        44.57183        -0.12505
C         65.94363        43.98902         0.34319
C         67.15387        45.93727        -0.51044
C         65.91347        46.62515        -0.60190
C         67.15592        48.73844        -0.89431
C         65.91750        48.02643        -0.88392
C         67.13485        50.15112        -0.97854
C         65.92826        50.81931        -1.29151
C         67.12991        53.00776        -1.38307
C         65.93776        52.27804        -1.43122
C         67.13351        54.42187        -1.54164
C         65.90171        55.13143        -1.48790
C         67.14958        57.27221        -1.47649
C         65.90207        56.54949        -1.41894
C         67.17726        58.67021        -1.31457
C         65.88100        59.43457        -1.33361
C         67.21109        61.55017        -0.87947
C         65.95833        60.81932        -0.73985
C         67.27712        62.93057        -0.60722
C         66.04294        63.67523        -0.32246
C         67.36443        65.69759         0.21959
C         66.12064        65.02900         0.25300
C         67.42921        67.04323         0.71130
C         66.30726        67.66367         1.28608
C         67.72080        69.34059         2.40446
C         66.49346        68.82039         2.13051
C         69.54462        32.17297         3.69456
C         69.54674        33.67186         3.56360
C         68.32381        34.25288         2.87224
C         69.63205        36.25809         2.27025
C         68.39086        35.52879         2.32905
C         69.64913        37.61672         1.82626
C         68.38000        38.28036         1.57466
C         69.63861        40.43611         1.07870
C         68.34778        39.66659         0.96890
C         69.61368        41.67950         0.24362
C         68.37739        42.48089         0.32501
C         69.63404        44.46507        -0.48951
C         68.38758        43.82663        -0.10103
C         69.62692        45.86754        -0.77458
C         68.39778        46.60477        -0.75123
C         69.64408        48.68906        -1.07595
C         68.40665        48.01637        -0.88241
C         69.69049        50.15696        -0.93682
C         68.39394        50.90244        -0.76076
C         69.64331        53.01962        -1.50191
C         68.40845        52.42453        -0.84476
C         69.58594        54.37441        -1.85341
C         68.36807        55.12570        -1.71290
C         69.58014        57.29126        -1.85156
C         68.37201        56.55368        -1.71117
C         69.61803        58.68195        -1.59517
C         68.39745        59.39106        -1.33138
C         69.65900        61.52228        -1.19798
C         68.41841        60.81630        -1.14096
C         69.68502        62.93008        -1.01757
C         68.51363        63.64917        -0.64597
C         69.79521        65.77610        -0.31928
C         68.55172        65.04375        -0.28349
C         69.90156        67.06984         0.16428
C         68.70348        67.76362         0.65316
C         70.27598        69.25807         2.06402
C         68.88844        68.97872         1.60020
C         70.49222        70.02801         3.22034
C         71.93319        32.04903         3.27736
C         70.68794        31.43799         3.61108
C         71.98755        33.40226         2.97210
C         70.83789        34.21463         2.99530
C         72.07956        36.27963         2.36066
C         70.86207        35.58172         2.56332
C         72.08649        37.60347         1.95122
C         70.88832        38.29915         1.69423
C         72.16372        40.42861         0.87350
C         70.92951        39.75298         1.35885
C         72.15245        41.61430         0.23448
C         70.90088        42.30875        -0.17950
C         72.05424        44.44225        -0.81239
C         70.86383        43.75918        -0.49504
C         72.05115        45.79752        -1.09499
C         70.85120        46.54439        -1.06112
C         72.05408        48.71797        -1.47046
C         70.84991        47.97955        -1.22457
C         72.07020        50.09341        -1.56764
C         70.90943        50.88514        -1.35173
C         72.06128        52.99537        -1.99780
C         70.86673        52.28004        -1.59437
C         72.03771        54.29905        -2.36571
C         70.78104        55.05398        -2.37996
C         72.04974        57.34802        -2.28614
C         70.78590        56.60645        -2.34965
C         72.07310        58.65446        -1.92846
C         70.86524        59.40242        -1.64092
C         72.12801        61.53669        -1.48883
C         70.88588        60.79373        -1.44018
C         72.16566        62.88724        -1.43567
C         70.93076        63.67199        -1.29399
C         72.28416        65.83151        -0.77213
C         70.98240        65.15075        -0.95695
C         72.37494        67.07595        -0.29164
C         71.17391        67.90436         0.08351
C         72.67205        68.95356         1.87480
C         71.38298        68.69870         1.38172
C         72.87437        69.72696         3.01843
C         71.78076        70.26736         3.69434
O         65.07536        42.36423         1.91461
O         52.03206        52.55345         1.88374
O         58.18184        56.59832         1.46655
O         64.61245        39.97824        -0.77800
O         70.10640        41.48067        -1.13279
O         69.15537        50.49072         0.42850
O         63.30700        62.84117         1.98864
O         48.30960        56.00160        -0.47994
O         68.62932        69.15851         0.17009
O         60.31061        52.96489        -2.81113
O         57.81576        59.05264        -1.14703
O         70.75442        64.71558        -2.33576
O         70.56464        55.85191        -3.58899
O         61.33892        50.41246        -3.19658
O         60.05292        48.23626        -2.90908
O         60.41313        45.67906        -2.76177
O         50.76871        50.03774         2.09960
O         53.78300        42.52460         0.96992
O         64.98749        63.54936        -1.35015
O         70.22230        40.57895         2.39372
O         62.96405        44.26850         1.73404
H         63.63492        43.83630         2.31000
O         69.47218        34.18931         4.95375
H         70.27301        33.86843         5.42084
O         47.49014        45.44871         1.51717
H         48.21644        44.80216         1.72245
O         57.97142        52.13530        -2.92628
H         58.80620        52.24403        -3.45099
O         67.30772        40.59934         2.94145
H         66.54209        41.10978         3.28074
O         51.39698        47.45745         2.08768
H         51.33112        48.34490         2.52223
O         64.08630        37.97219         2.73441
H         63.30198        37.40911         2.91395
O         55.47973        51.86802        -2.12783
H         56.24768        51.94706        -2.74595
O         49.84266        54.04923        -1.26665
H         49.33659        54.82140        -1.61465
O         71.02448        68.87553        -0.98688
H         70.14359        69.30671        -0.85753
O         68.44867        52.92418         0.53387
H         68.93459        52.23914         1.05370
O         65.62196        59.68143        -2.76810
H         66.35565        60.23675        -3.10911
O         57.12370        44.24463        -2.84843
H         57.26560        43.31026        -3.14625
O         51.27258        56.00361         2.54893
H         52.01816        55.37888         2.68454
O         48.62820        46.40871        -1.85183
H         49.52637        46.58680        -2.20452
O         63.98114        60.24601         1.67946
H         63.87654        61.08087         2.19886
O         62.70849        48.15500        -3.43312
H         61.93282        48.38278        -3.99460
O         44.68518        48.77730         1.56853
H         44.79348        47.90085         1.99822
O         53.49219        55.22621        -1.52723
H         52.57348        55.49892        -1.73947
O         56.36440        54.60775         1.81492
H         57.13319        55.17505         2.07559
O         60.28975        50.02899         0.26691
H         59.53281        49.78603         0.84353
O         67.40542        35.76987         0.17380
H         68.11862        36.35312        -0.16526
O         42.83187        48.82937        -2.45886
H         43.68509        49.32988        -2.54779
O         45.17433        50.07268        -1.82617
H         46.06172        49.66718        -2.03043
O         39.08138        52.54574        -2.24199
H         38.33526        52.08316        -2.67967
O         49.66193        43.84696         1.46162
H         50.45061        44.16759         1.95171
O         56.43496        47.75894         1.37858
H         55.73606        47.19352         1.77457
O         43.52364        51.43266         2.21709
H         44.02467        50.58046         2.25984
O         57.42848        60.76842         2.54084
H         58.17490        61.18239         3.02321
O         61.11309        64.11757        -0.60869
H         60.84281        63.39991        -1.21897
O         61.35572        64.38019         3.05143
H         62.17909        63.84234         3.13354
O         57.33974        41.45601        -2.89974
H         56.59615        40.89147        -3.20264
O         56.41791        50.87169         1.27125
H         56.44169        49.96966         1.66619
O         48.23587        50.51661         2.52889
H         49.08169        50.60940         3.02463
O         47.56701        48.85052        -1.71023
H         47.76173        47.96101        -2.11161
O         56.10258        61.16622        -0.86892
H         56.70201        60.54607        -1.35486
O         43.51273        54.22692         3.07582
H         43.49288        53.23927         3.02700
O         68.12245        39.41636        -0.44399
H         68.53942        40.12327        -0.98355
O         63.93189        50.98183        -3.51467
H         63.09149        51.03855        -4.02398
O         47.73708        56.84527         3.05765
H         46.97759        57.19748         3.56701
H         37.51552        49.14230        -0.51729
H         35.43530        50.43847        -0.39563
H         37.58917        54.16843        -0.41720
H         35.48725        52.93279        -0.21133
H         39.14887        48.13960        -0.62544
H         39.29678        55.02008        -0.02801
H         41.20227        46.94897        -1.03881
H         41.30721        56.02297         0.94937
H         44.89166        44.68464        -0.32838
H         42.90247        45.97187        -1.00761
H         44.88502        58.00272         1.86416
H         42.82099        56.76097         2.09468
H         46.61698        43.89952        -1.12960
H         46.52944        59.08817         1.37294
H         48.71331        42.66509        -1.23845
H         48.62190        60.26052         1.01498
H         52.32888        40.30226        -1.05672
H         50.25713        41.54154        -0.71446
H         52.41276        62.37272         1.67306
H         50.30494        61.13609         1.67689
H         54.06776        39.29506        -0.81862
H         54.14353        63.23503         2.00538
H         56.20859        38.12478        -0.90544
H         56.22348        64.50286         1.75622
H         60.01103        36.12922        -0.43926
H         57.92245        37.22534        -1.04467
H         59.97425        66.67826         1.69545
H         57.87183        65.51895         1.35741
H         61.42120        35.37566         0.70501
H         61.74517        67.49479         2.11348
H         63.40127        34.30255         1.59258
H         63.87060        68.69168         2.01344
H         67.02521        32.55568         3.34672
H         64.96855        33.56226         2.56596
H         67.82415        70.07082         3.21878
H         65.63542        69.18131         2.71396
H         68.61252        31.67371         3.99382
H         69.64066        70.46349         3.76004
H         72.84168        31.43474         3.22160
H         70.65852        30.35267         3.78629
H         72.94746        33.82741         2.64534
H         73.03810        35.78815         2.57448
H         73.05037        38.12072         1.85079
H         73.13479        39.96134         1.09630
H         73.11392        42.07244        -0.04170
H         73.00640        43.89555        -0.84172
H         73.00411        46.28729        -1.33259
H         72.99699        48.17827        -1.62728
H         73.02107        50.57937        -1.82394
H         73.02076        52.46191        -2.01914
H         72.95896        54.78892        -2.70976
H         72.98251        56.84180        -2.57018
H         73.04307        59.16803        -1.90804
H         73.07485        60.99454        -1.60824
H         73.12568        63.40925        -1.54382
H         73.19250        65.32007        -1.12140
H         73.35919        67.56523        -0.27897
H         73.55257        68.54221         1.36459
H         73.89520        69.90890         3.38144
H         71.92922        70.87860         4.59485
