         344
 CSIRO Nanostructure Databank - Neutral Graphene Oxide Data Set
C          1.14064         2.09262         0.15144
C          1.11218         3.46102         0.24289
C          2.34292         1.36307         0.33464
C          2.32270         4.18108         0.77775
C          1.16569         6.42169         0.90005
C          1.14162         7.81249         0.79998
C          2.32162         5.68420         0.59376
C          2.30832         8.53054         0.47606
C          1.11424        10.74031         0.17966
C          1.13040        12.13114         0.08608
C          2.31213         9.99975         0.28636
C          2.33402        12.86006         0.07142
C          1.18191        15.07418         0.40957
C          1.22061        16.44860         0.55265
C          2.36399        14.32447         0.16023
C          2.44963        17.14912         0.50085
C          2.50972        18.57192         0.66815
C          3.59215         2.03370         0.38432
C          3.60191         3.48287         0.36246
C          4.80892         1.33165         0.30368
C          4.77076         4.16363         0.10048
C          3.50005         6.38061         0.26966
C          3.49811         7.79024         0.28845
C          4.71515         5.63746        -0.25402
C          4.75143         8.53744        -0.08403
C          3.52430        10.70943         0.18134
C          3.56005        12.12450         0.07808
C          4.80011         9.97148         0.48744
C          4.82172        12.80912        -0.01626
C          3.58905        15.00994         0.08069
C          3.65089        16.41663         0.27511
C          4.82763        14.27658        -0.35530
C          4.90849        17.10937         0.28962
C          3.70648        19.23455         0.64799
C          4.94441        18.52042         0.48550
C          6.04382         2.01584         0.17740
C          6.03227         3.45562         0.04518
C          7.26755         1.31086         0.11229
C          7.26026         4.13099        -0.07087
C          6.01279         6.32414        -0.00957
C          6.03754         7.77996         0.32148
C          7.28915         5.61785        -0.35973
C          7.25445         8.47752        -0.30136
C          6.07005        10.66803         0.02968
C          6.04795        12.11592        -0.09691
C          7.25014         9.97142        -0.09805
C          7.26063        12.81977        -0.33913
C          6.12041        14.96327         0.00229
C          6.14342        16.38159         0.19568
C          7.32135        14.23119        -0.15377
C          7.36861        17.06702         0.30443
C          6.18170        19.19364         0.53381
C          7.40552        18.48790         0.44087
C          8.50213         1.98270        -0.02157
C          8.48851         3.42193        -0.07284
C          9.74676         1.29284        -0.09080
C          9.74188         4.11211        -0.14156
C          8.46978         6.30640         0.36758
C          8.54978         7.78942         0.04292
C          9.77523         5.56895         0.14861
C          9.72388         8.48828        -0.17775
C          8.50895        10.63223        -0.37933
C          8.48139        12.07668        -0.81349
C          9.68345         9.92627        -0.43915
C          9.78866        12.78821        -0.56112
C          8.59691        14.89646        -0.09968
C          8.65758        16.30277         0.42528
C          9.79214        14.21008        -0.33868
C          9.84459        17.08816        -0.04733
C          8.66205        19.16228         0.45927
C          9.86631        18.47414         0.14382
C         10.96546         1.97975        -0.24190
C         10.93886         3.41707        -0.28532
C         12.23511         1.31381        -0.28222
C         12.21068         4.13536        -0.54174
C         11.01810         6.34684        -0.07144
C         10.99820         7.81540        -0.20515
C         12.23010         5.63535        -0.56211
C         12.21226         8.47876        -0.34737
C         10.93876        10.59704        -0.96195
C         10.97021        12.09076        -0.69893
C         12.22149         9.98652        -0.36270
C         12.23743        12.77893        -0.72660
C         11.04736        14.91140        -0.46382
C         11.02006        16.40699        -0.67384
C         12.21544        14.21940        -0.70659
C         12.35536        17.09216        -0.40230
C         11.13350        19.17383         0.08438
C         12.34108        18.51521        -0.03750
C         13.46369         2.00220        -0.26856
C         13.48876         3.44341        -0.32307
C         14.71572         1.31809        -0.21842
C         14.66915         4.17527        -0.12297
C         13.48951         6.34577        -0.28306
C         13.44646         7.77495        -0.22759
C         14.65245         5.60984        -0.05915
C         14.69862         8.49723        -0.17484
C         13.48598        10.58924        -1.01173
C         13.46743        12.09971        -0.84889
C         14.74418         9.92235        -0.49340
C         14.69790        12.81935        -0.85709
C         13.43422        14.95888        -1.19867
C         13.47796        16.41578        -0.78798
C         14.73344        14.21607        -0.91307
C         14.77793        17.02760        -1.22970
C         13.58917        19.25479         0.09081
C         14.78336        18.69901         0.52295
C         15.92956         2.00453        -0.08815
C         15.93158         3.46112         0.06617
C         17.17260         1.31984        -0.12074
C         17.10154         4.12893         0.34885
C         15.78584         6.36250         0.59377
C         15.86062         7.79525         0.09362
C         17.10661         5.58880         0.60010
C         17.14341         8.47625        -0.10694
C         15.92916        10.61706        -0.49930
C         15.98372        12.03423        -1.01449
C         17.17543         9.95403        -0.18373
C         17.21459        12.77926        -0.55442
C         15.97966        14.92825        -0.76207
C         16.01500        16.34962        -0.72717
C         17.19941        14.20175        -0.55081
C         17.19156        17.06430        -0.38740
C         16.06639        19.26195         0.18256
C         17.21124        18.51118        -0.13553
C         18.40110         1.97770         0.06579
C         18.40518         3.39211         0.60137
C         19.62192         1.32575        -0.13183
C         19.65729         4.15824         0.19390
C         18.41343         6.30138         0.46182
C         18.41600         7.73118         0.04289
C         19.66970         5.56309         0.18597
C         19.68232         8.47021         0.20135
C         18.36728        10.63882        -0.06878
C         18.39109        12.07840        -0.24256
C         19.59669         9.94338         0.49500
C         19.63400        12.79069        -0.12455
C         18.41881        14.92483        -0.38360
C         18.42585        16.35128        -0.34022
C         19.64765        14.21040        -0.26537
C         19.67566        17.05613        -0.37432
C         18.46617        19.18570        -0.20485
C         19.68492        18.51228        -0.34373
C         20.87501         2.01277        -0.08192
C         20.87132         3.46007         0.02159
C         22.09101         1.33936        -0.21667
C         22.10391         4.17892        -0.04440
C         20.87027         6.30348         0.05826
C         20.86732         7.76338         0.13547
C         22.10599         5.60904        -0.00560
C         22.12859         8.47725         0.10448
C         20.89159        10.64783         0.20026
C         20.86254        12.08609         0.05437
C         22.07529         9.91082         0.12378
C         22.07693        12.82321         0.02770
C         20.88206        14.92966        -0.33888
C         20.88093        16.35355        -0.47516
C         22.09793        14.19873        -0.21615
C         22.10363        17.11840        -0.96364
C         20.92896        19.21204        -0.32855
C         22.15603        18.56198        -0.51694
C         23.34014         2.03204        -0.18755
C         23.33793         3.46974        -0.08797
C         24.56298         1.34866        -0.25576
C         24.57174         4.17989         0.00264
C         23.34962         6.32809         0.01899
C         23.35554         7.76879         0.02863
C         24.56969         5.61569         0.06194
C         24.62824         8.44858         0.01039
C         23.33772        10.65233        -0.08926
C         23.30397        12.06685         0.46149
C         24.64172         9.91303        -0.20436
C         24.61928        12.76329         0.24835
C         23.38210        14.91258        -0.41200
C         23.41499        16.36872        -0.74548
C         24.65516        14.23145        -0.00096
C         24.67968        17.12449        -0.51287
C         23.39341        19.23748        -0.52183
C         24.65469        18.57924        -0.59013
C         25.81166         2.03274        -0.13099
C         25.79847         3.47196         0.03390
C         27.02370         1.34755        -0.14892
C         27.03151         4.18292         0.20381
C         25.81454         6.31673         0.23534
C         25.82378         7.75962         0.21825
C         27.01047         5.60213         0.36468
C         27.09902         8.45677         0.44403
C         25.97133        10.66740        -0.08600
C         25.79666        11.95846         0.67357
C         27.10501         9.89006         0.51340
C         26.85712        12.50868         1.30968
C         25.81737        15.09816         0.31482
C         25.83700        16.46558        -0.16525
C         26.80852        14.71400         1.18294
C         27.19303        17.12054        -0.22825
C         25.87819        19.27774        -0.57522
C         27.13360        18.62438        -0.41639
C         28.32893         2.00811         0.18455
C         28.27250         3.50973         0.12913
C         29.49790         1.44406        -0.58032
C         29.49125         4.25686        -0.01499
C         28.27458         6.26543         0.85017
C         28.26001         7.75956         0.72220
C         29.52077         5.64969         0.24777
C         29.55550         8.45626         1.05241
C         28.26710        10.61120         0.85379
C         28.21777        12.04444         1.12044
C         29.51640         9.95228         0.88833
C         29.35423        12.85664         1.07605
C         28.14456        15.30149         1.28807
C         28.15829        16.79549         0.93853
C         29.38619        14.36938         1.25011
C         29.51792        17.32438         0.57702
C         28.35892        19.26784        -0.42231
C         29.58632        18.55115        -0.09827
C         30.58737         2.19413        -0.85661
C         30.65913         3.59910        -0.50520
C         31.83007         4.35560        -0.69908
C         30.71427         6.39792         0.07962
C         30.75257         7.81799         0.38738
C         31.86253         5.71295        -0.40889
C         31.88190         8.61964         0.22319
C         30.69072        10.71835         0.74136
C         30.60784        12.18975         0.72903
C         31.88760        10.00738         0.46848
C         31.70503        12.95047         0.35920
C         30.63471        15.08916         0.87192
C         30.72693        16.60727         1.12456
C         31.69936        14.37617         0.39413
C         32.00976        17.22230         0.64286
C         30.85843        19.09771        -0.40897
C         32.03810        18.40408        -0.05150
O         10.67787         5.86117         1.29802
O         28.82489        14.91131         2.51656
O         14.81795        17.84078        -2.14506
O         26.60429        13.65840         2.06657
O         23.55808        15.36907        -1.81819
O         24.90935        13.23712        -1.10190
O         23.91543        10.38940        -1.39939
O         12.13937         4.92131        -1.82302
O         17.85561         7.87650        -1.32151
O         17.89743         5.99083         1.81060
O         30.71081        16.78396         2.58862
H         30.08389        16.10566         2.94970
O          2.25610         3.99720         2.24269
H          2.25485         3.03038         2.41110
O          7.48394         5.69850        -1.80846
H          7.43718         6.66226        -2.06000
O          4.78420        14.31005        -1.84240
H          5.57057        13.81795        -2.16681
O         14.75671        17.56966         1.29582
H         15.66925        17.32095         1.54587
O         15.37123         6.47042         1.99875
H         16.19729         6.55257         2.52965
O         13.49439        10.31987        -2.44903
H         14.32930        10.71189        -2.80247
O         13.28241        14.99290        -2.67223
H         13.93588        15.63877        -3.02213
O          6.15535         7.84712         1.77503
H          6.89043         7.23194         2.04838
O         10.84438        16.57446        -2.12957
H         11.57871        16.07363        -2.56411
O         12.22713        10.41162         1.02713
H         12.87637         9.86213         1.51460
O         27.68264        17.49487         2.11286
H         28.39382        17.45906         2.78853
O         26.41980        10.98410        -1.43144
H         25.65547        11.41007        -1.88678
O          4.81073        10.01185         1.93798
H          5.46880         9.35101         2.26511
O          8.88306        16.13640         1.89621
H          8.82688        17.03235         2.29417
O         19.40642        10.03921         1.97047
H         20.10307         9.49080         2.39116
O          7.15227         8.33022        -1.77119
H          7.76362         8.98693        -2.17117
O         23.19644        11.92480         1.91303
H         22.29366        11.59940         2.11866
O         29.77608         8.23972         2.52637
H         30.66457         8.60355         2.73345
O         28.58502         1.67329         1.61514
H         27.93421         2.17807         2.14914
O         16.11536        11.87224        -2.48364
H         16.28472        12.76147        -2.86327
O          8.18241         6.15143         1.79331
H          9.05667         6.21919         2.24957
O          4.69702         8.68196        -1.51895
H          4.59705         7.77761        -1.90142
O          8.36215        12.02159        -2.28597
H          9.17177        11.55506        -2.61198
O         27.83121        16.53261        -1.40069
H         27.22323        16.63701        -2.16287
O         18.50442         3.26453         2.06001
H         18.40464         4.17853         2.42004
O         10.85624        10.40835        -2.40253
H         11.77508        10.47200        -2.77236
O         21.90797        17.21094        -2.40771
H         22.27762        16.37735        -2.78593
O         28.32817         5.95179         2.29084
H         28.92772         6.62599         2.69969
O          4.59006         5.70160        -1.74230
H          5.45667         5.39443        -2.10744
H          0.22214         1.54018        -0.09691
H          0.17114         4.00834         0.08900
H          2.32504         0.26497         0.28598
H          0.25053         5.89171         1.20000
H          0.19992         8.34337         0.99836
H          0.14342        10.22551         0.20179
H          0.16799        12.65910         0.04079
H          0.21345        14.56139         0.48314
H          0.29059        17.00910         0.72640
H          1.57090        19.12525         0.81678
H          4.80103         0.23139         0.31801
H          3.74138        20.32574         0.78017
H          7.25325         0.21188         0.16663
H          6.19727        20.28677         0.65835
H          9.74986         0.19459        -0.02204
H          8.68379        20.25333         0.59432
H         12.24774         0.21371        -0.24744
H         11.13166        20.25258         0.30182
H         14.72504         0.21891        -0.27279
H         13.62837        20.26051        -0.35284
H         17.17562         0.24585        -0.36482
H         16.12671        20.35543         0.06635
H         19.62141         0.25511        -0.39025
H         18.47272        20.27993        -0.08572
H         22.09531         0.24322        -0.31254
H         20.91607        20.29853        -0.14896
H         24.56613         0.25328        -0.35746
H         23.39038        20.33243        -0.40079
H         27.01930         0.25178        -0.25416
H         25.86420        20.37663        -0.64160
H         29.47082         0.37770        -0.84935
H         28.42622        20.34128        -0.65598
H         31.45302         1.74732        -1.36932
H         32.73328         3.86035        -1.08426
H         32.80013         6.26338        -0.56468
H         32.81475         8.17452        -0.15224
H         32.83255        10.54734         0.32217
H         32.63669        12.46009         0.04860
H         32.61635        14.89717         0.08483
H         32.95528        16.76583         0.96903
H         30.92605        20.05829        -0.93779
H         33.00913        18.84190        -0.32697
