         234
 CSIRO Nanostructure Databank - Neutral Graphene Oxide Data Set
C          1.29352         1.94873         0.81336
C          1.28862         3.35812         1.02591
C          2.42610         1.31164         0.37860
C          2.40627         4.12590         0.78118
C          1.12236         6.35416         0.69104
C          1.06674         7.63201         0.27208
C          2.39433         5.61382         1.09269
C          2.29009         8.41650        -0.05669
C          1.18390        10.80543        -0.39469
C          1.30732        12.14088        -0.58869
C          2.35632         9.89843        -0.38688
C          2.59988        12.81769        -0.69846
C          1.60769        14.97247        -1.69636
C          1.75584        16.29799        -2.07720
C          2.72322        14.20564        -1.20484
C          3.02584        16.92391        -2.16008
C          3.22273        18.26856        -2.50993
C          3.62861         2.04981         0.12386
C          3.61995         3.49132         0.31166
C          4.81257         1.37933        -0.19025
C          4.79309         4.22369         0.07784
C          3.61593         6.31184         0.56963
C          3.53566         7.79320         0.51543
C          4.77715         5.65108         0.23719
C          4.80383         8.53849         0.63256
C          3.70554        10.60873        -0.37209
C          3.73496        12.08857        -0.42046
C          4.96694         9.88357         0.01799
C          5.09530        12.73188        -0.59839
C          3.97484        14.80127        -1.25404
C          4.23479        16.03601        -2.05548
C          5.02166        14.22070        -0.38021
C          5.55116        16.74086        -1.68788
C          4.48693        18.86340        -2.47836
C          5.64159        18.18947        -1.99474
C          6.03618         2.07381        -0.41027
C          5.94230         3.56090        -0.68142
C          7.24308         1.40620        -0.47457
C          7.29716         4.26734        -0.53694
C          5.98567         6.51144        -0.15369
C          6.04470         7.71610         0.80533
C          7.32441         5.75341        -0.26318
C          7.30857         8.39913         1.19200
C          6.28860        10.55613         0.29840
C          6.31966        12.07446         0.04680
C          7.34487         9.91065         1.11236
C          7.38334        12.84900         0.68694
C          6.18133        15.00394         0.12911
C          6.56320        16.19021        -0.71263
C          7.20686        14.31094         1.08030
C          7.76007        16.98592        -0.31595
C          6.79837        18.88293        -1.65661
C          7.85208        18.35800        -0.83521
C          8.51855         2.08545        -0.47059
C          8.53833         3.50221        -0.32089
C          9.73172         1.38787        -0.57453
C          9.76304         4.18701        -0.09438
C          8.55383         6.33129         0.33445
C          8.54638         7.58200         0.97979
C          9.77364         5.60272         0.27745
C          9.74181         8.00841         1.57025
C          8.49546        10.69548         1.26988
C          8.53128        12.12788         1.02556
C          9.73696        10.16004         1.76609
C          9.78011        12.80900         1.19301
C          8.52400        15.10595         1.22413
C          8.78603        16.31249         0.32494
C          9.73735        14.22718         1.65810
C          9.53305        16.93818         1.50214
C          8.92669        19.19904        -0.55911
C          9.90446        18.92020         0.46405
C         10.97477         2.06905        -0.46863
C         10.96600         3.46132        -0.14027
C         12.21467         1.40326        -0.67946
C         12.25506         4.07699         0.32965
C         11.00282         6.24839         0.60345
C         11.00268         7.53663         1.19217
C         12.26763         5.58680         0.36990
C         12.23696         8.33523         1.46394
C         10.97432        10.68362         1.43788
C         10.99497        12.12042         1.24994
C         12.23102         9.88129         1.54148
C         12.25199        12.82102         1.34520
C         11.04249        14.95491         1.50172
C         10.95021        16.40384         1.73975
C         12.26430        14.28071         1.47638
C         12.23629        17.20704         1.75711
C         11.24589        19.08177         0.35767
C         12.17411        18.73672         1.52345
C         13.45181         2.11409        -0.70929
C         13.45236         3.47416        -0.33593
C         14.69347         1.44812        -1.01180
C         14.62952         4.29322        -0.50635
C         13.44320         6.29774         0.42416
C         13.56495         7.62347         1.16828
C         14.69288         5.66311         0.05746
C         14.61206         8.52621         0.52465
C         13.47797        10.64280         1.21324
C         13.43355        12.06428         1.25327
C         14.68787         9.96655         0.86490
C         14.72995        12.77985         1.29355
C         13.49635        15.02948         1.53987
C         13.51832        16.45551         1.53953
C         14.76270        14.26014         1.50760
C         14.71948        17.18558         1.37218
C         13.50593        19.33694         1.21334
C         14.69656        18.61921         1.10593
C         15.91885         2.10568        -0.97174
C         15.94176         3.57606        -0.85817
C         17.18380         1.44487        -1.05275
C         17.19311         4.25626        -0.52860
C         15.88217         6.34873         0.06716
C         15.87889         7.82464         0.09020
C         17.19454         5.61765         0.11939
C         17.14748         8.56936         0.06907
C         15.89221        10.64276         0.56144
C         15.87521        12.12016         0.59206
C         17.11489         9.97332         0.20199
C         17.13218        12.89574         0.33289
C         16.06098        14.99541         1.32081
C         16.03194        16.49885         1.38353
C         17.22887        14.32481         0.70901
C         17.28681        17.22640         0.98747
C         15.84743        19.32443         0.68016
C         17.17819        18.73755         0.65133
C         18.38266         2.14829        -0.96161
C         18.38475         3.57128        -0.66110
C         19.65723         1.48769        -1.08206
C         19.63275         4.30339        -0.57830
C         18.40338         6.44297        -0.23522
C         18.37683         7.85042        -0.13716
C         19.62401         5.73606        -0.44617
C         19.60666         8.58991        -0.26541
C         18.35294        10.73026         0.03860
C         18.37818        12.13436         0.11477
C         19.58642        10.01964        -0.19255
C         19.58492        12.87884        -0.06539
C         18.37640        15.03372         0.36748
C         18.42158        16.48082         0.43433
C         19.57172        14.31483        -0.04757
C         19.51940        17.18904        -0.08634
C         18.24629        19.31360        -0.14202
C         19.42795        18.61499        -0.35847
C         20.82785         2.18317        -0.98130
C         20.84412         3.61105        -0.77162
C         22.06181         4.34271        -0.79669
C         20.85294         6.45354        -0.54041
C         20.83218         7.89394        -0.46058
C         22.06136         5.71892        -0.69573
C         22.03028         8.64947        -0.58567
C         20.80207        10.74365        -0.34657
C         20.80115        12.18337        -0.31650
C         22.01255        10.02210        -0.53948
C         21.98103        12.93770        -0.54810
C         20.74523        15.03201        -0.36285
C         20.70552        16.48382        -0.49975
C         21.94800        14.31385        -0.59208
C         21.76094        17.18904        -1.07341
C         20.53764        19.27597        -0.98488
C         21.67884        18.58329        -1.30402
O          3.90276         8.47715         1.79224
O          6.65849        15.89630        -2.15813
O         14.86030         8.32215        -0.89011
O          4.60168        10.00896        -1.38120
O         16.34324        15.70333         2.58391
O          8.56967        16.16061         2.34604
O          4.90527        14.99691         0.86662
O          6.88430        11.11463        -0.90953
O         11.57933        16.82886         3.01090
O          2.32903         8.86508        -1.43730
O         15.15710         4.26060        -1.88893
O         14.96859        13.29947         2.63754
O         17.64685        18.23170         1.96747
O          7.54440         5.24635        -1.60528
O          9.65607         9.00596         2.53573
O         16.11091        12.69771        -0.74946
O          5.67256         7.03862        -1.40835
O          6.46942         7.67467         2.19237
O         12.31225         9.02800         2.74684
O          9.38549        18.32428         1.65119
O          4.43553        15.55067        -3.42693
H          5.24589        14.99089        -3.40602
O         14.13099         7.23403         2.44926
H         13.67833         7.76806         3.14386
O          5.32663        12.68279        -2.03989
H          5.42068        11.72398        -2.26709
O          5.54443         3.68314        -2.07295
H          5.78630         4.60041        -2.35020
O         17.35770         5.32314         1.56755
H         18.25000         4.93178         1.68772
O          9.59357        14.03743         3.10513
H          9.46687        14.92979         3.50416
O          6.63315        14.24346         2.39803
H          6.70246        15.13374         2.80468
O         12.33681         3.70315         1.76630
H         12.26876         2.72540         1.81713
O          2.46249         5.72172         2.55562
H          2.81993         6.61229         2.76970
O         11.66754        19.37298         2.71041
H         11.31527        18.65783         3.29315
H          0.37658         1.37645         1.01205
H          0.36726         3.82758         1.39800
H          2.43276         0.22236         0.22804
H          0.17256         5.82412         0.86498
H          0.08934         8.08720         0.04648
H          0.18328        10.35331        -0.32950
H          0.39544        12.75258        -0.64973
H          0.59991        14.53455        -1.67819
H          0.85979        16.89280        -2.31025
H          2.35125        18.88706        -2.77206
H          4.82504         0.27842        -0.17098
H          4.57759        19.93330        -2.71764
H          7.24855         0.30616        -0.42465
H          6.86143        19.94896        -1.92538
H          9.72341         0.30480        -0.76442
H          9.03059        20.12717        -1.14225
H         12.20808         0.33017        -0.92209
H         11.66664        19.52202        -0.55756
H         14.67032         0.36142        -1.18322
H         13.52626        20.42349         1.04184
H         17.20633         0.35433        -1.19846
H         15.72612        20.36320         0.33969
H         19.67075         0.40431        -1.27102
H         18.11748        20.32116        -0.56408
H         21.79066         1.66345        -1.09327
H         23.00973         3.80159        -0.92861
H         23.02295         6.24668        -0.74078
H         22.99116         8.14059        -0.73421
H         22.96265        10.56015        -0.64777
H         22.93905        12.43204        -0.72319
H         22.88163        14.85576        -0.79146
H         22.67203        16.66647        -1.39318
H         20.46220        20.35407        -1.18578
H         22.53046        19.10049        -1.76721
