         634
 CSIRO Nanostructure Databank - Neutral Graphene Oxide Data Set
C         23.31914        69.96658         2.59419
C         23.35387        71.37388         2.80748
C         22.22938        72.07841         3.32546
C         23.48131        74.15945         3.30502
C         22.30315        73.44925         3.55566
C         25.63242        65.67869         1.66102
C         25.61743        67.10459         1.71306
C         24.46474        67.82174         2.11219
C         25.68098        69.93958         1.89640
C         24.47407        69.23756         2.18748
C         25.69875        71.44372         1.83952
C         24.54099        72.10326         2.53723
C         25.86077        74.19107         2.55703
C         24.62489        73.49133         2.80117
C         28.06782        61.40350         1.05228
C         28.05463        62.81394         1.18527
C         26.84530        63.52609         1.38861
C         28.03747        65.64299         1.12346
C         26.81961        64.93980         1.41162
C         27.95647        67.08839         0.86584
C         26.79395        67.83667         1.36334
C         28.08851        69.98068         1.29448
C         26.85016        69.24795         1.50018
C         28.19934        71.32343         1.67498
C         27.02494        71.99523         2.35505
C         28.26846        74.16730         2.05075
C         27.04733        73.51074         2.27515
C         30.50338        57.12820         0.38753
C         30.47108        58.52393         0.66244
C         29.27031        59.28070         0.68822
C         30.51851        61.39668         1.07520
C         29.27593        60.67998         0.95180
C         30.51880        62.79280         1.04923
C         29.29721        63.52989         1.08010
C         30.47149        65.71775         0.75795
C         29.26303        64.96552         0.98699
C         30.47439        67.09599         0.51878
C         29.19656        67.83766         0.45540
C         30.57533        69.92830         0.82766
C         29.21797        69.37196         0.48717
C         30.70666        71.26297         1.49264
C         29.41741        72.03343         1.57095
C         30.70009        74.13352         1.59797
C         29.46931        73.45202         1.76119
C         32.94301        52.84306         0.40825
C         32.95502        54.23508         0.37312
C         31.74446        54.96864         0.21465
C         32.92974        57.02993         0.77705
C         31.70688        56.37163         0.40581
C         32.77223        58.32433         1.30585
C         31.68107        59.16182         1.08998
C         32.95601        61.29851         0.47322
C         31.82395        60.66654         1.34341
C         33.02215        62.80619         0.52132
C         31.81476        63.52207         1.00006
C         32.92086        65.69688         0.22867
C         31.76597        65.02293         0.82761
C         32.90297        67.08582         0.09267
C         31.69444        67.81140         0.33768
C         33.00868        69.93445         0.39170
C         31.72853        69.24275         0.47864
C         33.03673        71.39218         0.55234
C         31.89467        72.04841         1.00370
C         33.08922        74.17861         0.96245
C         31.88951        73.47231         1.18617
C         35.36537        48.48907         0.05308
C         35.34949        49.91722         0.12029
C         34.18368        50.62378         0.35866
C         35.35406        52.78370        -0.10875
C         34.22538        52.09837         0.65989
C         35.43117        54.25557         0.25111
C         34.23337        54.95050         0.47458
C         35.44977        57.09955         0.54689
C         34.24180        56.39424         0.63769
C         35.50685        58.58060         0.24226
C         34.58192        59.45117         1.03154
C         35.47759        61.39269        -0.03523
C         34.35422        60.72591         0.61312
C         35.37874        62.78239        -0.31624
C         34.12219        63.46003         0.00370
C         35.25513        65.66813        -0.80108
C         34.03658        64.91044        -0.28977
C         35.29275        67.11986        -0.54155
C         34.13104        67.80468        -0.16204
C         35.48671        69.92035         0.13257
C         34.15301        69.22488         0.06594
C         35.36411        71.38486        -0.22281
C         34.22462        72.13471         0.18845
C         35.46371        74.35382         0.48087
C         34.26158        73.56432         0.46251
C         37.73411        44.20240        -0.13725
C         37.74735        45.60953        -0.21678
C         36.56344        46.34878        -0.05813
C         37.82372        48.46991        -0.21716
C         36.55532        47.76561        -0.08651
C         37.82787        49.88691        -0.11364
C         36.63253        50.61896         0.02275
C         37.86792        52.74972        -0.12753
C         36.65791        52.03696         0.03054
C         37.84487        54.19018        -0.18047
C         36.67509        54.92080         0.14702
C         37.85290        57.11155        -0.31272
C         36.78837        56.38806         0.51180
C         37.90244        58.47836        -0.41624
C         36.86796        59.27600         0.32523
C         37.83756        61.38859        -0.67078
C         36.71373        60.71369        -0.15703
C         37.75901        62.78313        -0.92385
C         36.55033        63.48548        -0.73871
C         37.65084        65.63134        -1.35250
C         36.53909        64.93577        -0.96310
C         37.60485        67.11007        -1.47822
C         36.50237        67.84023        -0.82665
C         37.78953        69.93589        -0.93127
C         36.58558        69.21417        -0.63182
C         37.78039        71.37598        -0.85549
C         36.48855        71.97394        -0.79957
C         37.96369        74.34512        -0.08426
C         36.60319        74.03747        -0.26817
C         40.13269        39.95589         0.19406
C         40.14328        41.30843        -0.17563
C         38.92495        42.05659        -0.15885
C         40.10489        44.12132        -0.86930
C         38.89408        43.43218        -0.36931
C         40.14615        45.58822        -0.80279
C         39.00382        46.30736        -0.49031
C         40.26932        48.44766        -0.68864
C         39.01812        47.75173        -0.45665
C         40.31254        49.86963        -0.57431
C         39.14795        50.59069         0.05132
C         40.29111        52.75245        -0.54411
C         39.10498        52.05969        -0.26391
C         40.25584        54.18032        -0.66023
C         39.06083        54.87003        -0.49701
C         40.21517        57.03647        -1.29236
C         38.95751        56.30471        -0.85278
C         40.22955        58.50170        -1.24607
C         39.04520        59.20426        -0.94480
C         40.23989        61.30289        -1.33882
C         39.05263        60.62890        -0.96918
C         40.27269        62.79990        -1.14368
C         38.95157        63.46442        -1.57975
C         40.04764        65.66810        -2.31853
C         39.03132        64.98828        -1.32740
C         40.17960        67.12823        -1.89707
C         38.91230        67.86352        -1.71870
C         40.19867        69.98768        -1.38889
C         38.96627        69.27664        -1.32001
C         40.20064        71.43168        -1.19248
C         38.97212        72.14343        -0.94141
C         40.30911        74.19478        -0.65213
C         39.03952        73.56602        -0.61909
C         42.52774        35.83928         1.44690
C         42.52880        37.20166         1.05174
C         41.32636        37.88343         0.77487
C         42.58994        39.90202         0.13201
C         41.33815        39.23684         0.36589
C         42.59828        41.25110        -0.31117
C         41.39895        41.94573        -0.47319
C         42.70763        44.08841        -0.98281
C         41.41039        43.34286        -0.95331
C         42.66899        45.49892        -1.13894
C         41.37177        46.25890        -1.36774
C         42.67798        48.41294        -1.09803
C         41.44305        47.72670        -1.01133
C         42.69161        49.84674        -1.12434
C         41.47957        50.58371        -0.88398
C         42.67599        52.72799        -1.23045
C         41.51332        52.03087        -0.85229
C         42.72867        54.14548        -1.24031
C         41.56163        54.92967        -0.69755
C         42.68620        57.03121        -1.43581
C         41.49479        56.32858        -1.24699
C         42.68381        58.46317        -1.58838
C         41.44215        59.18845        -1.48981
C         42.64830        61.31449        -2.09808
C         41.42723        60.60354        -1.57374
C         42.65411        62.80818        -1.85458
C         41.47523        63.49562        -1.73932
C         42.68448        65.65649        -2.26468
C         41.39924        64.84028        -2.46685
C         42.65981        67.12985        -2.00762
C         41.35894        67.82021        -1.78392
C         42.65865        69.94936        -1.68317
C         41.39582        69.25796        -1.58140
C         42.61077        71.42222        -1.79348
C         41.40721        72.13261        -1.33560
C         42.73759        74.22752        -1.06969
C         41.47962        73.53619        -1.06032
C         44.92532        33.02922         2.11026
C         43.72870        33.71307         1.91399
C         44.98093        35.78956         1.60331
C         43.73583        35.11326         1.66008
C         45.02078        37.29193         1.49480
C         43.77444        37.90877         0.91047
C         45.08884        39.92911         0.29897
C         43.81509        39.20644         0.40491
C         45.11743        41.27526        -0.10783
C         43.89489        41.85355        -0.80598
C         45.25478        43.97747        -1.17878
C         43.90025        43.36890        -0.85024
C         45.25150        45.50288        -1.25898
C         43.90957        46.24235        -1.35034
C         45.13836        48.39427        -1.11059
C         43.91729        47.70644        -1.17678
C         45.13509        49.83055        -1.19018
C         43.90614        50.52429        -1.32055
C         45.16743        52.68793        -1.47257
C         43.88127        51.96465        -1.74421
C         45.19150        54.14532        -1.86370
C         43.90019        54.86781        -1.52931
C         45.15489        57.02691        -1.62652
C         43.92882        56.28963        -1.50382
C         45.13121        58.42622        -1.67224
C         43.91120        59.17324        -1.66574
C         45.13547        61.33832        -1.78600
C         43.93775        60.60285        -1.78504
C         45.13444        62.74672        -1.92429
C         43.92506        63.50536        -2.01011
C         45.18080        65.64098        -1.83088
C         43.94655        64.91100        -2.02272
C         45.16909        67.08332        -1.70266
C         43.87514        67.79479        -1.39030
C         45.13728        69.99644        -1.72944
C         43.87805        69.28238        -1.69281
C         45.16525        71.40179        -1.70248
C         43.93401        72.18548        -1.79352
C         45.19800        74.26010        -1.16966
C         43.94918        73.59890        -1.33946
C         46.15099        33.69925         2.05961
C         47.44399        35.81170         1.77756
C         46.19619        35.09162         1.80241
C         47.51284        37.14251         1.36649
C         46.26884        37.75372         0.75378
C         47.50539        39.95594         0.70385
C         46.29614        39.25900         0.63761
C         47.52360        41.35968         0.43654
C         46.33480        42.01201        -0.02587
C         47.55493        44.14777        -0.13654
C         46.39075        43.40364        -0.35967
C         47.58308        45.59060        -0.33720
C         46.41869        46.26745        -0.80856
C         47.55776        48.43460        -0.59265
C         46.38753        47.69108        -0.87387
C         47.55040        49.86890        -0.71670
C         46.35033        50.55986        -1.05633
C         47.57578        52.71986        -0.95117
C         46.33882        52.00599        -1.14623
C         47.62638        54.14039        -1.15224
C         46.32370        54.87949        -1.15774
C         47.63451        56.95961        -1.67204
C         46.42800        56.32237        -1.57363
C         47.67675        58.41120        -1.93239
C         46.38746        59.16888        -1.87440
C         47.72997        61.28712        -1.64166
C         46.40432        60.59840        -1.39337
C         47.72457        62.75453        -1.83015
C         46.41464        63.48211        -1.99824
C         47.63722        65.63285        -1.30921
C         46.38668        64.93356        -1.77110
C         47.66247        67.08009        -1.75679
C         46.36346        67.82014        -1.67898
C         47.60948        69.95722        -1.33752
C         46.36011        69.23637        -1.66989
C         47.71581        71.42075        -1.58467
C         46.42464        72.17371        -1.71373
C         47.67088        74.24906        -1.13651
C         46.42887        73.60960        -1.34792
C         48.70084        37.89121         1.41539
C         49.92047        40.00626         1.18314
C         48.73393        39.27305         1.08800
C         49.95355        41.40717         0.93577
C         48.73756        42.08863         0.55855
C         49.95954        44.21976         0.49683
C         48.75119        43.48861         0.32209
C         49.96553        45.64385         0.36010
C         48.75167        46.32205        -0.03739
C         49.91475        48.48825         0.14878
C         48.76967        47.76266        -0.17542
C         49.90276        49.98412         0.21021
C         48.73479        50.59994        -0.49221
C         50.01771        52.69073        -0.55553
C         48.77283        52.00216        -0.67060
C         49.93377        54.17387        -0.35017
C         48.81635        54.82159        -1.10416
C         50.07742        56.97346        -0.95310
C         48.96024        56.22013        -1.63496
C         50.02502        58.47785        -0.88749
C         49.02108        59.12328        -1.85454
C         50.18371        61.33077        -1.32509
C         48.92395        60.61937        -1.58525
C         50.18938        62.76167        -1.26982
C         48.96155        63.51257        -1.50824
C         50.26273        65.62058        -1.58853
C         48.94052        64.88008        -1.49091
C         50.19786        67.07641        -1.22378
C         48.95850        67.79803        -1.55220
C         50.17231        69.97027        -1.09282
C         48.89722        69.23069        -1.16979
C         50.14166        71.41758        -1.01705
C         48.95279        72.12522        -1.18510
C         50.13477        74.25747        -0.86686
C         48.91579        73.56445        -1.07989
C         51.14500        42.13453         1.05887
C         52.36573        44.27545         1.02017
C         51.17141        43.53922         0.86171
C         52.37396        45.68429         0.90961
C         51.14594        46.36060         0.61776
C         52.40067        48.55023         0.54506
C         51.09456        47.84514         0.81023
C         52.44814        49.91838         0.17340
C         51.23154        50.63594        -0.12317
C         52.53017        52.80045        -0.66168
C         51.24750        51.99836        -0.42632
C         52.40451        54.10770         0.17386
C         51.23796        54.89710        -0.36486
C         52.41761        57.04662        -0.06574
C         51.22817        56.29593        -0.49269
C         52.45308        58.42984        -0.19744
C         51.42799        59.10508        -1.09038
C         52.51161        61.31536        -0.53633
C         51.34665        60.61806        -0.95888
C         52.51670        62.73766        -0.47553
C         51.35070        63.46156        -0.86462
C         52.48076        65.61882        -0.42590
C         51.39254        64.90668        -0.89508
C         52.54526        67.05765        -0.50339
C         51.34409        67.78276        -0.90626
C         52.59834        69.96742        -0.77717
C         51.33179        69.24185        -0.93324
C         52.55922        71.42967        -0.58113
C         51.37350        72.12905        -0.75669
C         52.60124        74.26203        -0.59542
C         51.36519        73.58065        -0.72825
C         53.56925        46.43746         1.06221
C         54.82682        48.55870         0.84247
C         53.60419        47.83968         0.81705
C         54.86916        49.93438         0.56054
C         53.68564        50.61303         0.16360
C         54.91395        52.79996         0.35901
C         53.85674        52.00946        -0.42098
C         54.87582        54.16270         0.54989
C         53.66369        54.92310         0.29579
C         54.71421        57.08989         1.00982
C         53.58001        56.30216         0.37959
C         54.79982        58.50772         0.50714
C         53.64864        59.18026         0.09770
C         54.85098        61.32619         0.22711
C         53.68245        60.60504        -0.10289
C         54.87113        62.75216         0.17748
C         53.69933        63.44311        -0.08327
C         54.90768        65.62457         0.34988
C         53.58159        64.89414         0.30868
C         54.90369        67.05601         0.29825
C         53.71560        67.73639        -0.12477
C         54.84776        69.98039         0.42748
C         53.80609        69.20013        -0.33760
C         54.95908        71.40206        -0.08526
C         53.81333        72.11584        -0.37759
C         55.04645        74.25499        -0.23073
C         53.82617        73.57717        -0.44374
C         56.09758        50.67709         0.72870
C         57.31935        52.77453         1.08706
C         56.11765        52.05815         0.71542
C         57.37724        54.13946         1.20285
C         56.03768        54.88703         1.21277
C         57.12889        57.06561         0.52495
C         56.01860        56.35516         0.85311
C         57.25606        58.49538         0.72069
C         56.03247        59.20899         0.60790
C         57.21336        61.29008         1.03391
C         56.04273        60.62193         0.60977
C         57.00004        62.73044         1.49988
C         56.20269        63.45247         0.36756
C         57.29439        65.62508         0.96857
C         56.08422        64.92929         0.58643
C         57.30357        67.07646         0.89647
C         56.12183        67.77688         0.54616
C         57.31558        69.92198         0.73449
C         56.14995        69.22288         0.51398
C         57.26297        71.43037         0.89035
C         56.30846        72.05588        -0.13667
C         57.45722        74.23649         0.25463
C         56.26568        73.56906        -0.01123
C         58.60332        54.78822         1.68281
C         59.86766        57.05151         1.63280
C         58.96187        56.03490         1.20616
C         59.72365        58.43391         1.34811
C         58.47272        59.14796         1.02077
C         59.63251        61.35266         1.42651
C         58.41821        60.58045         1.20473
C         59.61255        62.73829         1.53836
C         58.32661        63.46627         1.89765
C         59.60152        65.66516         1.96402
C         58.37541        64.92962         1.49087
C         59.70437        67.09020         1.47567
C         58.51910        67.78484         1.14871
C         59.74248        69.92728         1.07291
C         58.54636        69.21946         0.98468
C         59.76198        71.33281         0.81572
C         58.61151        72.08371         0.75192
C         59.88891        74.17939         0.72653
C         58.67977        73.53305         0.55781
C         60.88375        59.23303         1.54525
C         62.10402        61.36023         1.53581
C         60.88850        60.63108         1.47890
C         62.11624        62.75418         1.57512
C         60.85219        63.49171         1.62622
C         62.15130        65.60500         2.08621
C         60.87266        64.86800         1.75817
C         62.16426        67.05662         1.63635
C         60.95598        67.75543         1.51146
C         62.26424        69.89115         1.06867
C         60.98818        69.26597         1.58706
C         62.29127        71.19532         0.65509
C         61.05079        72.01389         0.45927
C         62.43282        74.06889         0.87090
C         61.11722        73.39042         1.12857
C         63.34627        63.46546         1.56700
C         64.60998        65.55665         1.59894
C         63.39932        64.85176         1.70042
C         64.65734        66.96584         1.53174
C         63.41899        67.73581         1.48501
C         64.75179        69.77482         0.97402
C         63.47963        69.11038         1.18064
C         64.80835        71.10324         0.61969
C         63.57217        71.87926         0.24748
C         64.86471        73.96913         0.84515
C         63.61969        73.34488         0.70441
C         65.89464        67.62594         1.41167
C         67.23456        69.65139         1.08226
C         65.98665        69.00964         1.16520
C         67.33943        71.03632         0.82739
C         66.11395        71.81646         0.39649
C         67.40858        73.89401         0.87824
C         66.10296        73.17403         1.12993
C         68.53691        71.73393         0.89104
C         68.55478        73.16895         0.78300
O         37.92151        67.63456        -2.82041
O         44.71548        45.90103        -2.56460
O         56.15473        62.67689         2.60937
O         36.34387        73.22225        -1.39756
O         46.99223        58.86932        -3.17086
O         47.24099        63.09241        -3.19542
O         39.23306        56.50414        -2.28246
O         33.84366        58.85523         2.03794
O         34.22917        65.21621        -1.73881
O         40.60186        43.57520        -2.16105
O         47.24344        71.83052        -2.90629
O         28.28740        67.36476        -0.58685
O         48.06074        69.53451         0.01529
O         42.84817        66.64468        -3.36693
O         60.94547        72.36331        -1.01150
O         53.67379        69.57214        -1.74119
O         32.05569        64.39668         2.15481
O         58.25128        56.39953         0.04453
O         48.46173        67.44299        -2.91933
O         43.17545        71.96119        -3.03488
O         46.16095        37.23219        -0.59989
H         46.91925        37.57239        -1.11862
O         60.42551        71.20477        -1.70900
H         59.44954        71.37698        -1.73072
O         35.05540        58.71028        -1.14765
H         35.67950        58.20572        -1.71294
O         49.48033        54.26961         1.07557
H         50.19307        53.82168         1.59878
O         45.57062        43.51718        -2.54702
H         45.15748        44.18576        -3.14826
O         52.09317        53.66718         1.54450
H         52.28408        54.42078         2.14371
O         35.90356        69.85228         1.54528
H         35.16589        70.21002         2.08442
O         54.34437        57.20074         2.42520
H         54.71636        56.40100         2.87198
O         39.47271        65.68016        -3.64374
H         38.74244        66.35537        -3.65105
O         39.41438        50.52952         1.51405
H         39.37972        49.58365         1.77298
O         34.54454        52.23794         2.08626
H         33.83850        51.78829         2.59577
O         49.54217        59.00475        -3.21406
H         48.79114        59.24964        -3.80817
O         44.00025        41.38879        -2.19323
H         44.69848        41.95233        -2.61777
O         54.35727        70.10215         1.79955
H         55.01434        70.66603         2.27793
O         63.58077        71.94182        -1.22382
H         62.65930        72.18154        -1.50597
O         27.10369        71.64194         3.76311
H         27.97104        71.94523         4.10326
O         38.78289        63.19593        -2.98709
H         39.12047        63.96102        -3.52089
O         37.31061        56.45088         1.90322
H         36.72842        55.89001         2.46046
O         43.72739        51.95338        -3.22871
H         44.27521        51.21497        -3.57299
O         52.52610        53.20683        -2.05144
H         51.85515        53.91609        -2.17095
O         66.27292        72.05927        -1.02297
H         65.37101        72.13198        -1.42180
O         47.50520        65.75944         0.16151
H         47.55229        64.86179         0.55319
O         49.56991        58.84955         0.44337
H         50.18364        58.45117         1.09670
O         49.69264        50.33749         1.64037
H         50.21871        49.67723         2.16639
O         55.69300        54.86451         2.66266
H         55.63810        53.92212         2.93232
O         49.39047        56.09246        -3.04156
H         49.52436        57.01211        -3.38034
O         56.70563        71.71364         2.21073
H         57.38337        71.47142         2.87747
O         62.18460        65.69043         3.55666
H         61.24531        65.85050         3.84167
O         61.04665        73.14876         2.57109
H         61.06031        74.01858         3.02174
O         66.05756        72.85621         2.56439
H         66.06416        73.70239         3.05878
O         56.89372        71.73761        -1.44136
H         56.23447        71.97015        -2.12959
O         59.47071        65.82357         3.43325
H         59.05368        64.96991         3.75018
O         41.88278        55.12726         0.74286
H         42.83542        55.35993         0.80288
O         51.96194        58.82316        -2.40775
H         51.33341        59.18145        -3.07780
O         41.46921        64.40018        -3.84984
H         41.64002        65.20354        -4.39241
O         43.68333        67.65929         0.06028
H         44.48456        68.01242         0.50267
O         50.87855        48.01900         2.30373
H         50.15538        47.40415         2.55648
O         32.56878        60.95019        -0.89128
H         33.30744        61.18453        -1.49288
O         53.14314        64.85855         1.71429
H         53.79398        64.31319         2.21050
O         58.34541        63.45997         3.36168
H         57.39938        63.17328         3.58536
O         25.61821        71.81168         0.42707
H         24.76643        71.47697         0.07661
O         42.53277        61.25795        -3.56667
H         41.92533        61.97749        -3.85249
O         37.28599        59.33231         1.71367
H         37.41398        58.39936         2.01916
O         40.43436        62.91963         0.32108
H         39.74578        62.35912         0.74164
O         60.98069        69.54528         3.03598
H         61.69845        69.01252         3.44138
O         50.58593        65.61358        -3.02573
H         49.88114        66.14613        -3.46840
O         31.01905        70.95436         2.92381
H         31.27926        71.80211         3.34504
O         56.98787        63.26229        -0.84377
H         56.49342        63.65007        -1.59611
O         39.49582        65.32493         0.00231
H         39.97457        64.55294         0.39966
O         54.48341        51.74177        -1.70469
H         54.05859        52.33472        -2.36774
O         46.32093        60.46866         0.06919
H         46.26519        61.36632         0.45808
O         32.18103        60.89804         2.72150
H         31.45202        60.57964         3.29204
O         34.99790        52.70443        -1.52089
H         35.71104        53.13436        -2.03787
O         28.98729        69.81720        -0.88818
H         28.42357        69.12405        -1.30901
O         45.13178        37.80631         2.86032
H         44.35063        37.49135         3.36172
O         45.40840        54.19890        -3.29318
H         44.73134        53.60770        -3.70162
O         41.18353        46.21763        -2.83033
H         41.00993        45.26849        -3.05065
O         45.92954        54.89416         0.25507
H         46.72731        55.09511         0.79083
H         23.52902        75.23866         3.50871
H         25.86774        75.29022         2.62363
H         28.30390        75.26720         2.08617
H         30.72301        75.22521         1.73069
H         33.10926        75.25957         1.16680
H         35.49320        75.21115         1.17072
H         38.23312        75.22213         0.52442
H         40.37167        75.25893        -0.37887
H         42.74304        75.28703        -0.77128
H         45.19244        75.31473        -0.85432
H         47.66921        75.33343        -0.94609
H         50.12169        75.35716        -0.82599
H         52.60592        75.36253        -0.60823
H         55.04073        75.35433        -0.16894
H         57.47753        75.33730         0.23437
H         59.95200        75.27347         0.62346
H         62.51403        75.13159         1.15778
H         64.88773        75.05332         1.05136
H         67.43409        74.99472         0.87772
H         22.39376        69.41546         2.81748
H         21.30273        71.52853         3.54327
H         21.42553        73.98053         3.95057
H         24.70421        65.13246         1.88374
H         23.54957        67.27262         2.37747
H         27.11220        60.85920         1.02270
H         25.90743        62.96636         1.51735
H         29.56232        56.61716         0.13682
H         28.30966        58.77825         0.50282
H         31.98662        52.30073         0.34660
H         30.80829        54.41946         0.03553
H         34.41554        47.94305         0.15712
H         33.23597        50.07730         0.49146
H         36.79904        43.68989         0.13387
H         35.61411        45.81245         0.08925
H         39.17335        39.45650         0.39393
H         38.00363        41.54315         0.15458
H         41.56656        35.30957         1.52557
H         40.36468        37.36461         0.90132
H         44.90694        31.94790         2.30691
H         42.76991        33.17659         1.95011
H         47.08843        33.14675         2.21595
H         48.35872        35.29544         2.10820
H         49.62272        37.41396         1.78295
H         50.84972        39.49629         1.47800
H         52.07281        41.61367         1.33759
H         53.29876        43.74462         1.26057
H         54.50799        45.91133         1.28982
H         55.75629        48.03075         1.10346
H         57.00717        50.12364         1.00678
H         58.23384        52.17918         1.23529
H         59.21310        54.26846         2.43835
H         60.76234        56.75421         2.20377
H         61.84152        58.71914         1.72229
H         63.05745        60.81075         1.54971
H         64.27923        62.90320         1.40488
H         65.54931        64.99227         1.48933
H         66.82067        67.03586         1.48764
H         68.14763        69.06940         1.28464
H         69.48107        71.19945         1.07575
H         69.52605        73.67734         0.68758
