         244
 CSIRO Nanostructure Databank - Neutral Graphene Oxide Data Set
C          1.67567         1.14680        -2.17012
C          1.57918         2.46893        -2.58057
C          2.67893         0.80746        -1.26104
C          2.46324         3.45105        -2.09534
C          1.12346         6.53981        -1.58324
C          1.19869         7.87073        -1.02303
C          2.25464         5.85838        -1.90537
C          2.34866         8.60663        -1.02293
C          1.35792        10.51393         0.33772
C          1.37357        11.86849         0.71051
C          2.34207         9.99985        -0.52561
C          2.45209        12.71327         0.42310
C          1.52409        14.70572         1.74371
C          1.65553        15.97574         2.19062
C          2.37363        14.21261         0.59776
C          2.74464        16.81920         1.73743
C          2.81110        18.22002         2.13474
C          3.59535         1.76062        -0.81268
C          3.54135         3.13365        -1.21331
C          4.63954         1.26883         0.16085
C          4.63376         4.02964        -0.78736
C          3.59563         6.41683        -1.63751
C          3.62038         7.97606        -1.64203
C          4.67689         5.52097        -1.04579
C          4.86992         8.52476        -0.95608
C          3.35100        10.92368        -0.89460
C          3.56400        12.18177        -0.28594
C          5.14553         9.92884        -1.11969
C          4.84587        12.88044        -0.37363
C          3.72752        14.89019         0.56373
C          3.77985        16.25323         1.00065
C          4.87618        14.25742         0.07207
C          4.94446        17.12504         0.59900
C          3.96414        18.91882         2.05042
C          5.23214        18.19198         1.66020
C          5.92170         2.02953         0.01126
C          5.81219         3.43977        -0.28974
C          7.13340         1.44956         0.27565
C          7.03298         4.20436        -0.06501
C          5.67925         6.26626        -0.23345
C          5.61913         7.70233        -0.13778
C          6.80781         5.59635         0.18926
C          7.60752         8.80559        -0.00456
C          6.18191        10.76714        -0.67419
C          6.07209        12.21442        -0.65648
C          7.49558        10.16093        -0.47398
C          7.33485        12.95404        -0.59154
C          6.14812        14.98458         0.08560
C          6.19706        16.34142         0.30878
C          7.37670        14.26612        -0.19720
C          7.41105        17.16545        -0.05944
C          6.38760        19.06734         1.24724
C          7.47265        18.52637         0.61858
C          8.37235         2.19200         0.23622
C          8.30054         3.62247         0.06799
C          9.58585         1.56443         0.49598
C          9.62603         4.29629        -0.32722
C          8.82234         6.65783         0.20985
C          8.73570         8.04560        -0.18272
C          9.75365         5.80799        -0.29527
C          9.86783         8.60598        -0.92054
C          8.63970        10.83522        -0.82634
C          8.59725        12.30060        -1.12980
C          9.87333        10.09853        -1.12284
C          9.91088        12.93693        -0.72109
C          8.66837        14.91197         0.25879
C          8.70952        16.41438         0.10309
C          9.93573        14.25994        -0.25401
C          9.88206        17.08434         0.24936
C          8.72019        19.23719         0.49789
C          9.91450        18.55276         0.29989
C         10.83083         2.28504         0.59122
C         10.86741         3.66667         0.27682
C         12.01224         1.63029         0.98727
C         12.09451         4.40537         0.36200
C         11.05592         6.37136        -0.86387
C         11.14340         7.88646        -0.80183
C         12.19525         5.72906        -0.11459
C         12.31903         8.58122        -0.82119
C         11.16478        10.78381        -1.03153
C         11.12975        12.20677        -0.83760
C         12.34742        10.04047        -0.89302
C         12.36978        12.87767        -0.66643
C         11.15678        14.93547        -0.06942
C         11.13911        16.30923         0.59064
C         12.37499        14.26929        -0.35777
C         12.42469        17.10425         0.37073
C         11.16444        19.24472         0.25162
C         12.39010        18.58233         0.20303
C         13.24007         2.33451         1.11272
C         13.28322         3.74637         0.86005
C         14.42993         1.65458         1.43792
C         14.51583         4.44370         1.03585
C         13.38074         6.55293         0.14637
C         13.60606         7.79080        -0.71361
C         14.57898         5.90627         0.79791
C         14.80413         8.60499        -0.27788
C         13.60323        10.72738        -0.75636
C         13.60216        12.15157        -0.72905
C         14.82363        10.01784        -0.50096
C         14.83968        12.85661        -0.68502
C         13.62963        14.95144        -0.34229
C         13.66491        16.39896        -0.05171
C         14.82537        14.28915        -0.59271
C         14.77850        17.18298        -0.70029
C         13.63678        19.25739         0.12001
C         14.85277        18.58881        -0.14155
C         15.66861         2.33723         1.56029
C         15.68673         3.77113         1.39697
C         16.84876         1.60630         1.78126
C         16.90006         4.59550         1.80535
C         15.90552         6.54892         0.60592
C         15.96380         7.92789         0.15923
C         17.04422         5.88007         1.00807
C         17.22199         8.60034         0.19231
C         16.04120        10.75471        -0.38529
C         16.05720        12.13456        -0.58916
C         17.31468        10.10024         0.09680
C         17.37895        12.86437        -0.54983
C         16.07079        15.04261        -0.70357
C         16.07536        16.40270        -0.67045
C         17.29361        14.27315        -1.16249
C         17.32710        17.18569        -0.96206
C         16.10030        19.20896        -0.02221
C         17.33085        18.54417        -0.28623
C         18.14728         2.26158         1.92278
C         18.19574         3.78387         1.88482
C         19.37878         1.53194         1.60071
C         19.47215         4.41055         1.49138
C         18.33629         6.50848         0.89080
C         18.39986         7.89012         0.45413
C         19.51227         5.80167         1.16742
C         19.66144         8.47417         0.08147
C         18.57772        10.61563        -0.58751
C         18.49227        12.01766        -1.23662
C         19.67921         9.74184        -0.63785
C         19.77809        12.85640        -1.25130
C         18.57814        15.00969        -0.87072
C         18.58856        16.38416        -0.72591
C         19.80177        14.25763        -0.94839
C         19.81949        17.07834        -0.48802
C         18.54451        19.15446        -0.01403
C         19.80071        18.47444        -0.16762
C         20.56246         2.19301         1.47052
C         20.63511         3.62940         1.43513
C         21.90944         4.27749         1.19982
C         20.83271         6.54159         1.20513
C         20.85092         7.71180         0.23908
C         22.01912         5.61833         1.08091
C         22.01098         8.07419        -0.44128
C         20.88704         9.99488        -1.38397
C         20.95975        12.30543        -1.73477
C         22.00270         9.18110        -1.31069
C         22.18757        12.99594        -1.74579
C         21.04253        14.96430        -0.90473
C         21.05273        16.37582        -0.56315
C         22.23427        14.29519        -1.27256
C         22.25253        17.09092        -0.33037
C         21.01635        19.14065         0.06643
C         22.22783        18.44772        -0.02072
O          2.15945         4.68664        -2.64004
O          9.64984         9.16070        -2.26292
O          7.75794         6.20351         1.00701
O         13.64885         6.73001         1.57954
O          4.21675        10.59007        -1.94682
O          6.53310         8.30376         0.74304
O         13.45689        16.71475         1.36711
O          4.66444         5.89063        -2.48499
O         20.94121        11.02685        -2.32470
O         18.29051         3.08751         3.17282
O         17.75998        13.09497         0.82207
H         17.64628        12.24591         1.32407
O          8.67023        14.65888         1.70437
H          9.47334        15.10437         2.07794
O          4.57658        17.82771        -0.63676
H          4.18896        17.16259        -1.24484
O          7.24701        17.46355        -1.48615
H          6.36767        17.90460        -1.56654
O         17.28162        17.45786        -2.41994
H         18.04668        18.03682        -2.62873
O          3.61276         8.32645        -3.03736
H          4.28160         7.76149        -3.48154
O          9.67682         3.90944        -1.74779
H         10.37284         4.47108        -2.17967
O         11.05101        16.05090         2.03025
H         11.98364        15.97181         2.34802
O         17.43427        10.52098         1.53214
H         18.15898         9.98895         1.92884
O          1.65954        14.66506        -0.62123
H          1.50663        15.62875        -0.51758
O         17.15371        14.17323        -2.59992
H         17.08147        15.08747        -2.95072
O          8.53510        12.44625        -2.58750
H          7.74616        11.95499        -2.90070
O         11.18670         6.03506        -2.28639
H         10.66262         6.69094        -2.79520
O         16.60939         5.04410         3.16336
H         16.92364         4.32456         3.76054
O          4.84758        -0.13963         0.05227
H          5.21431        -0.32655        -0.83605
O          5.67900        17.47149         2.84955
H          5.86770        18.12930         3.55026
O         20.91920         7.14627         2.54570
H         20.82819         6.41952         3.19821
O         13.93031         7.27841        -2.04290
H         13.98894         8.04130        -2.65554
O         18.10266        11.75339        -2.60361
H         18.88455        11.37083        -3.05868
O         14.43980        17.31205        -2.11378
H         15.27023        17.56405        -2.58220
H          0.97210         0.39009        -2.54147
H          0.79660         2.78250        -3.28357
H          2.77846        -0.22531        -0.89956
H          0.13834         6.10045        -1.78520
H          0.26037         8.31799        -0.66508
H          0.52574         9.87995         0.67507
H          0.51178        12.25938         1.26914
H          0.69117        14.08318         2.10076
H          0.96237        16.37834         2.94486
H          1.89758        18.68947         2.53161
H          4.25190         1.45133         1.20565
H          4.02325        19.95852         2.40754
H          7.16890         0.37654         0.51866
H          6.44870        20.09083         1.65531
H          9.59660         0.48264         0.69848
H          8.74386        20.31759         0.71111
H         11.99037         0.55066         1.19739
H         11.14955        20.34502         0.21675
H         14.40385         0.56606         1.59338
H         13.65222        20.34947         0.26579
H         16.80651         0.50744         1.79290
H         16.14672        20.23574         0.37579
H         19.32764         0.44042         1.47709
H         18.55377        20.17969         0.38773
H         21.48843         1.62871         1.28392
H         22.80745         3.64284         1.14950
H         23.01979         6.06618         1.00052
H         22.92980         7.48149        -0.35244
H         22.88661         9.41991        -1.91557
H         23.08951        12.49491        -2.11999
H         23.19535        14.82596        -1.25963
H         23.22110        16.57458        -0.37010
H         21.00845        20.20900         0.32547
H         23.17179        18.97794         0.16809
