         334
 CSIRO Nanostructure Databank - Neutral Graphene Oxide Data Set
C         30.43747        57.14131         0.93353
C         30.41011        58.55037         0.91669
C         29.17682        59.26758         0.94917
C         30.38801        61.36617         0.87133
C         29.17102        60.64421         0.91234
C         32.86942        52.86763         0.61311
C         32.85032        54.29313         0.59693
C         31.66584        55.00963         0.79707
C         32.88576        57.16036         0.71203
C         31.64764        56.43280         0.82043
C         32.87211        58.56614         0.79836
C         31.64443        59.28186         0.86580
C         32.87672        61.54332         0.90215
C         31.61019        60.71210         0.85770
C         35.25242        48.56317         0.45523
C         35.20563        49.97868         0.33791
C         34.04656        50.72103         0.51644
C         35.27406        52.85442         0.08154
C         34.04149        52.14683         0.39370
C         35.27941        54.28876         0.07611
C         34.08419        55.00614         0.36584
C         35.31526        57.10376         0.17476
C         34.10370        56.42427         0.44348
C         35.38002        58.56692         0.36729
C         34.14040        59.31881         0.73775
C         35.27695        61.44799         0.20052
C         34.12885        60.78875         0.52405
C         37.79370        44.35998         0.45268
C         37.76888        45.75702         0.47168
C         36.53526        46.45899         0.43309
C         37.73215        48.64625         0.70831
C         36.46790        47.85530         0.47405
C         37.72842        49.94639        -0.07365
C         36.42572        50.67670        -0.14034
C         37.69494        52.82977        -0.41572
C         36.45676        52.15121        -0.18498
C         37.71000        54.26091        -0.43996
C         36.49225        54.98440        -0.20174
C         37.72838        57.13688        -0.38992
C         36.49326        56.41075        -0.17258
C         37.74710        58.54987        -0.38427
C         36.44034        59.29617        -0.42153
C         37.73454        61.40492        -0.10194
C         36.52914        60.76090        -0.06772
C         40.20725        40.07716         0.60742
C         40.21136        41.48085         0.56387
C         39.00719        42.23068         0.51407
C         40.26894        44.36009         0.56591
C         39.01043        43.63111         0.49714
C         40.26960        45.76022         0.58710
C         39.03197        46.49746         0.53623
C         40.27720        48.71362         0.67210
C         39.01971        47.88115         0.55471
C         40.18783        50.01072        -0.11213
C         38.99782        50.69375        -0.23676
C         40.13177        52.83051        -0.75694
C         38.93345        52.11064        -0.55077
C         40.15273        54.25242        -0.79441
C         38.93353        54.96859        -0.63418
C         40.14294        57.12666        -0.79027
C         38.94163        56.41705        -0.60997
C         40.17823        58.53330        -0.63467
C         38.96028        59.25399        -0.44626
C         40.19813        61.36044        -0.29656
C         38.98316        60.69690        -0.31050
C         42.63553        35.76664         0.60047
C         42.62717        37.17763         0.53387
C         41.42295        37.91927         0.63306
C         42.66745        40.04024         0.49674
C         41.41103        39.32573         0.58225
C         42.67927        41.44251         0.57336
C         41.47298        42.19699         0.59305
C         42.76554        44.32331         0.59020
C         41.49342        43.61130         0.61250
C         42.78296        45.75378         0.54974
C         41.54341        46.51805         0.90863
C         42.72022        48.59196         0.08625
C         41.54785        47.94249         0.40966
C         42.72293        49.98929        -0.34795
C         41.41887        50.59577        -0.64502
C         42.66397        52.82579        -0.99082
C         41.38531        52.10606        -0.98672
C         42.61168        54.25624        -1.12253
C         41.40225        54.93848        -1.03117
C         42.64636        57.12648        -0.93290
C         41.36653        56.42367        -1.32010
C         42.64172        58.50374        -0.71230
C         41.42847        59.23800        -0.62882
C         42.65848        61.33471        -0.19016
C         41.44549        60.65997        -0.40342
C         45.19600        33.00297         0.91213
C         43.98073        33.64938         0.61904
C         44.95252        35.79630        -0.10020
C         43.82697        35.04046         0.35158
C         45.09477        37.17198         0.07137
C         43.87321        37.90143         0.34399
C         45.11704        39.98696        -0.10099
C         43.88064        39.29077         0.32743
C         45.13350        41.47904         0.04079
C         43.99253        42.13270         0.79773
C         45.27653        44.32810         0.73528
C         43.96325        43.61653         0.58720
C         45.23386        45.75750         0.27135
C         43.99478        46.45396         0.30040
C         45.19477        48.54754        -0.17049
C         43.98502        47.86744         0.07744
C         45.19937        50.06293        -0.15304
C         43.88988        50.70390        -0.57302
C         45.12214        52.86719        -1.03913
C         43.87563        52.11636        -0.90839
C         45.13269        54.21896        -1.27863
C         43.86123        54.99028        -1.54981
C         45.07831        57.03402        -0.71763
C         43.89354        56.41528        -1.05281
C         45.02691        58.35860         0.02236
C         43.96864        59.23294        -0.67473
C         45.03652        61.23069         0.38801
C         43.90502        60.63826        -0.11306
C         46.48467        33.55279         0.95303
C         47.75067        35.75352         0.62266
C         46.80054        34.78828         0.32206
C         47.64354        37.13041         0.18623
C         46.38665        37.82110        -0.01491
C         47.61157        39.95251        -0.22023
C         46.40677        39.24324        -0.13129
C         47.61860        41.42238        -0.39153
C         46.42004        42.20232         0.00403
C         47.68518        44.30639         0.01692
C         46.45926        43.56266         0.17748
C         47.69169        45.68791        -0.05173
C         46.42689        46.43172        -0.02337
C         47.70328        48.48195        -0.67756
C         46.40565        47.83390        -0.24744
C         47.70192        49.98684        -0.61837
C         46.40694        50.64824        -0.85435
C         47.70139        52.82342        -1.10065
C         46.40258        52.11752        -1.13775
C         47.70785        54.26158        -1.18494
C         46.41760        54.94574        -1.39533
C         47.60694        57.12625        -0.66626
C         46.37464        56.44482        -1.05472
C         47.52845        58.50986        -0.28679
C         46.33781        59.10466         0.04580
C         47.55903        61.25873         0.57156
C         46.29096        60.46045         0.70777
C         48.83653        37.88519         0.16539
C         50.11365        39.98523        -0.05497
C         48.86598        39.27230        -0.07963
C         50.19577        41.37724        -0.14625
C         48.93645        42.13508        -0.36303
C         50.16952        44.25495        -0.52360
C         48.98482        43.56249         0.14267
C         50.16030        45.73640        -0.23739
C         48.95286        46.39641        -0.11945
C         50.18871        48.59365        -0.30222
C         48.90057        47.89071         0.06439
C         50.16444        49.97636        -0.53435
C         48.88811        50.68557        -0.69526
C         50.18104        52.82578        -1.23499
C         48.88479        52.11260        -0.93548
C         50.14682        54.29934        -0.90820
C         48.89164        54.99915        -1.01608
C         50.04295        57.11871        -0.45092
C         48.86020        56.44350        -0.75850
C         49.99633        58.54045         0.07374
C         48.79198        59.32846        -0.44814
C         50.00839        61.36509         0.43132
C         48.75688        60.69286         0.21390
C         51.39579        42.12072        -0.00280
C         52.61676        44.27096         0.03977
C         51.44567        43.53768        -0.11552
C         52.67205        45.70831        -0.11152
C         51.40781        46.45128        -0.21856
C         52.70541        48.56956        -0.05033
C         51.40352        47.84426        -0.24913
C         52.66818        49.99411        -0.54076
C         51.38237        50.72814        -0.57264
C         52.59588        52.86024        -0.46255
C         51.40608        52.11233        -0.72214
C         52.56640        54.25115        -0.44840
C         51.34102        54.96653        -0.66797
C         52.57954        57.12133        -0.12563
C         51.36277        56.47005        -0.75272
C         52.51566        58.55004         0.35707
C         51.31389        59.30826        -0.20294
C         52.46890        61.37386         0.62465
C         51.25431        60.73116         0.32255
C         53.88026        46.37373        -0.14350
C         55.18477        48.60320        -0.10358
C         53.95382        47.82674        -0.55541
C         55.18431        49.97485        -0.03506
C         53.94220        50.73624        -0.36921
C         55.10232        52.91682         0.01328
C         53.80590        52.15686         0.11924
C         55.07636        54.28541         0.01411
C         53.74414        54.97047         0.16691
C         55.05413        57.20317        -0.29273
C         53.75960        56.45545        -0.07258
C         55.01872        58.63700         0.19646
C         53.81036        59.31244         0.26482
C         54.94831        61.40279         0.79927
C         53.74144        60.71950         0.55997
C         56.35840        50.77810         0.20079
C         57.54633        52.94122         0.32947
C         56.34490        52.17179         0.15308
C         57.54577        54.32561         0.32337
C         56.29975        55.06311         0.11938
C         57.58852        57.21196        -0.01561
C         56.29684        56.43968         0.08086
C         57.48540        58.63585         0.50078
C         56.24653        59.32721         0.46247
C         57.40444        61.40373         1.09227
C         56.18937        60.72555         0.79016
C         58.74442        55.08141         0.59141
C         59.93024        57.21028         0.91679
C         58.76802        56.45490         0.54385
C         59.89897        58.57847         1.05545
C         58.65681        59.30899         0.89073
C         59.85379        61.42814         1.43169
C         58.61058        60.71968         1.15576
C         61.15446        59.29179         1.50424
C         61.03179        60.78671         1.54336
O         46.25981        51.10431        -2.23159
O         45.95897        35.10498        -0.77228
O         53.48009        50.40355        -1.71702
O         48.27105        41.91189        -1.62885
O         35.16550        58.95099         1.75559
O         43.71954        55.00208        -3.09264
O         44.81751        40.88102        -1.24992
O         46.45615        55.94302        -2.46206
O         36.97929        49.95991        -1.32031
O         41.29247        51.07220        -2.01770
O         49.27354        43.50563         1.57246
H         48.42883        43.57982         2.06495
O         47.88573        48.15683        -2.08492
H         47.27110        48.71156        -2.61175
O         44.60612        58.08129         1.38022
H         44.96416        58.80843         1.95123
O         50.31656        52.76670        -2.70491
H         49.58992        53.30217        -3.08981
O         44.41199        59.36974        -2.05763
H         43.65894        59.71012        -2.58470
O         32.73589        62.73158         0.11589
H         32.61264        62.46794        -0.81875
O         45.39811        50.44394         1.24978
H         44.75168        49.94496         1.79309
O         37.67598        49.08151         2.13056
H         37.44505        48.29199         2.66617
O         41.55855        46.62808         2.39055
H         41.13159        47.49517         2.61253
O         50.02003        44.10253        -1.95403
H         50.73167        44.61095        -2.39516
O         45.54479        44.38792         2.19270
H         45.30059        43.49563         2.54650
O         57.86651        57.34844        -1.45582
H         56.99633        57.48151        -1.90456
O         49.73266        58.46140         1.49976
H         50.58453        58.27092         1.96267
O         48.93380        59.54601        -1.88289
H         48.09758        59.93767        -2.21368
O         51.58046        56.74769        -2.19221
H         51.56962        57.73926        -2.28157
O         46.19520        60.16138         2.17322
H         47.06227        59.78440         2.44173
O         62.27087        58.89887         0.68825
H         62.04940        59.09996        -0.24404
O         53.48394        54.87473         1.64087
H         52.59850        55.26770         1.80403
O         40.37600        49.12172         2.09817
H         39.45107        49.35533         2.37895
O         35.96589        59.23486        -1.80948
H         36.67743        59.58816        -2.38422
O         53.96457        47.79523        -2.00624
H         53.94772        48.73640        -2.31355
O         48.67753        48.15246         1.48195
H         49.36505        47.67251         1.98960
O         52.87145        48.65895         1.40102
H         52.25079        49.33600         1.74403
O         51.53967        59.38560        -1.63534
H         50.71367        59.75318        -2.04015
O         44.03823        56.31562        -3.59394
H         45.03032        56.35470        -3.47595
O         52.32046        58.41102         1.81516
H         53.15146        58.05060         2.19280
O         53.52758        52.03500         1.55519
H         53.54851        52.95679         1.91700
O         44.33617        41.91606         2.23285
H         43.53119        42.12406         2.75545
O         55.12148        57.31289        -1.77171
H         54.26200        57.67150        -2.08570
O         41.24848        56.55698        -2.77793
H         42.06092        56.17081        -3.18281
H         29.49104        56.58456         1.00322
H         28.23322        58.70474         0.99072
H         30.36930        62.46513         0.85345
H         28.21960        61.19413         0.92589
H         31.93592        52.32703         0.82970
H         30.71957        54.46380         0.92875
H         33.00748        61.89061         1.96753
H         34.30640        48.00441         0.52502
H         33.11350        50.21537         0.80742
H         35.26926        62.54898         0.16811
H         36.84345        43.80634         0.41694
H         35.60456        45.88084         0.32858
H         37.78302        62.48750         0.09385
H         39.24505        39.54428         0.64164
H         38.04620        41.69568         0.47999
H         40.21982        62.45054        -0.14735
H         41.71070        35.22993         0.85952
H         40.46951        37.37685         0.72026
H         42.63279        62.40285         0.07625
H         45.09590        31.98355         1.31910
H         43.06194        33.07992         0.83051
H         44.99398        62.27991         0.72189
H         47.25869        33.03049         1.53465
H         48.59807        35.49565         1.27605
H         47.55567        62.26564         1.01982
H         49.78860        37.36273         0.34326
H         51.03441        39.40070         0.09762
H         49.97468        62.39454         0.82283
H         52.33092        41.57619         0.20657
H         53.55978        43.74116         0.25049
H         52.44684        62.43342         0.92386
H         54.81583        45.79717        -0.06436
H         56.12557        48.05396         0.06166
H         54.92689        62.47773         1.03327
H         57.31594        50.26344         0.37546
H         58.49425        52.40410         0.48658
H         57.37851        62.48480         1.29534
H         59.64843        54.53171         0.89761
H         60.86307        56.66889         1.13757
H         59.80786        62.52511         1.51245
H         61.40467        58.94688         2.54960
H         61.95755        61.35528         1.71744
