         317
 CSIRO Nanostructure Databank - Neutral Graphene Oxide Data Set
C         30.22476        31.17656         0.51212
C         30.69349        32.33565         0.64074
C         30.62566        35.69237         1.39234
C         30.72997        36.90435         1.19689
C         30.53886        40.10692         0.24088
C         30.45192        41.33106         0.05482
C         32.59383        29.39425        -0.90111
C         31.46270        29.37007        -0.41671
C         32.76277        32.06903        -1.09472
C         30.29281        29.81225         0.27954
C         32.77867        33.13631        -0.05342
C         31.56571        33.40984         0.66860
C         32.89862        35.25998         1.72484
C         31.55528        34.50933         1.70246
C         32.87159        37.54903         1.72435
C         31.68647        37.98298         1.18952
C         32.84269        40.22957         0.86703
C         31.73696        39.23239         0.34928
C         32.75748        41.58294         0.77065
C         31.35481        42.31745         0.73759
C         32.67890        44.31866         0.43625
C         31.64455        43.69257         0.19782
C         35.23661        27.61970        -1.13160
C         35.14995        29.06832        -1.51748
C         33.90190        29.88071        -1.21862
C         35.31410        32.01656        -1.14175
C         34.00528        31.25237        -1.21224
C         35.24094        32.94816         0.13704
C         33.98512        33.77846         0.19530
C         35.18052        35.93629         0.57095
C         34.00748        35.01205         0.96463
C         35.24815        37.39128         1.07338
C         34.15635        38.14390         1.40315
C         35.35796        40.36598         1.08239
C         34.10355        39.64829         1.50332
C         35.32522        41.70103         0.85268
C         34.03618        42.38084         0.45727
C         35.22902        44.56866         0.12729
C         34.05283        43.91821         0.84809
C         35.17225        46.36137         0.78994
C         37.53825        27.40023        -0.16870
C         36.23335        26.96115        -0.81798
C         37.62886        28.86148        -0.75975
C         36.34291        29.68539        -0.66070
C         37.80057        31.80229        -0.88603
C         36.51030        31.12450        -1.03937
C         37.81116        33.11531        -0.16011
C         36.55281        33.72315         0.36707
C         37.68836        35.93921        -0.03569
C         36.56099        35.22221         0.77280
C         37.74183        37.44617         0.27335
C         36.55855        38.09775         0.94228
C         37.83506        40.31777         0.55930
C         36.62576        39.59911         1.08454
C         37.81835        41.79746         0.50470
C         36.58605        42.52683         1.00427
C         37.77124        44.60961         0.43440
C         36.55025        43.92118         0.42389
C         37.72017        46.04929         0.44081
C         36.41302        46.52198         0.57736
C         40.00176        24.53438        -0.12912
C         38.96592        25.20266        -0.05407
C         40.08396        27.33699        -0.07546
C         38.78217        26.61043        -0.57117
C         40.18375        28.79861        -0.34764
C         38.97402        29.52175        -0.88774
C         40.23557        31.62514        -0.02775
C         39.07966        31.02538        -0.84016
C         40.26880        33.13239        -0.16134
C         39.10434        33.84383        -0.19587
C         40.23798        35.98064        -0.03490
C         39.06764        35.28746         0.01410
C         40.30860        37.37825         0.41881
C         39.05667        38.17803         0.35805
C         40.33030        40.31342         0.71018
C         39.14193        39.62938         0.67387
C         40.36887        41.78615         0.69143
C         39.10960        42.52645         0.57479
C         40.30833        44.71064         0.75011
C         39.04602        43.89859         0.57814
C         40.13917        45.99802        -0.10481
C         38.96172        46.87049         0.42555
C         39.86216        48.37372        -1.25231
C         38.86389        48.11587        -0.49331
C         42.63159        24.47576        -0.00233
C         41.35514        25.09322        -0.48374
C         42.65499        27.30809         0.14973
C         41.34183        26.51899         0.26873
C         42.71764        28.63588        -0.13731
C         41.52897        29.45046        -0.64665
C         42.75178        31.63934        -0.24298
C         41.57343        30.94675        -0.27735
C         42.82516        33.11769        -0.25347
C         41.56460        33.87098         0.12301
C         42.79495        36.06041        -0.34945
C         41.49098        35.27255        -0.50464
C         42.83888        37.36153         0.06797
C         41.62544        38.05386         0.62724
C         42.88730        40.29998         0.62514
C         41.62734        39.55840         1.00539
C         42.90208        41.77468         1.00331
C         41.57826        42.48131         0.68837
C         42.73396        44.59188         0.07174
C         41.58718        43.92332         0.45457
C         42.61723        45.89836        -0.70483
C         41.46890        46.73758        -0.15226
C         42.45716        48.32273        -1.84703
C         41.19135        48.12850        -1.38151
C         43.65702        25.11629         0.22777
C         45.19224        27.10690         0.06765
C         43.92110        26.52238         0.67230
C         45.22386        28.66932         0.33811
C         44.04134        29.37421        -0.34854
C         45.27777        31.53928        -0.47616
C         44.02990        30.87495         0.07997
C         45.26780        33.02935        -0.63476
C         43.99285        33.81034        -0.48013
C         45.34822        36.03149        -0.77038
C         43.99624        35.29213        -0.92268
C         45.32565        37.50482        -0.45348
C         43.98929        38.28006        -0.35020
C         45.37201        40.26677         0.82308
C         44.04690        39.64648         0.35376
C         45.47157        41.86939         0.73748
C         44.10738        42.44562         0.34645
C         45.36092        44.67634         0.03319
C         44.03993        43.88333        -0.03927
C         45.23302        46.12705        -0.55267
C         43.90770        46.74002        -0.82049
C         43.65553        47.91902        -1.70347
C         47.48892        27.38728         1.03141
C         46.50325        26.72583         0.70620
C         47.71741        28.87717         0.94942
C         46.60742        29.27304        -0.12340
C         47.90492        31.52782        -0.23682
C         46.60828        30.78396        -0.37618
C         47.74343        32.98974         0.20380
C         46.60720        33.73634        -0.56287
C         47.98774        36.00003        -0.45160
C         46.64854        35.23474        -0.67559
C         47.83839        37.45113        -0.05041
C         46.52289        38.08922         0.28297
C         47.86972        40.35452         0.30993
C         46.54700        39.61980         0.06659
C         47.82639        41.76397        -0.16697
C         46.64216        42.43500        -0.09134
C         47.91766        44.59723        -0.56382
C         46.51140        43.85341        -0.63874
C         47.57250        45.90459        -1.27784
C         46.51825        46.52504        -1.11425
C         50.26721        28.91968         1.05971
C         49.06631        29.34586         0.51104
C         50.13182        31.57699         1.07316
C         49.26146        30.81870         0.03378
C         50.29190        33.07348         0.77069
C         49.08410        33.76783         0.09395
C         50.17391        35.98818         0.91268
C         48.88674        35.23459         0.56741
C         50.06757        37.34525         0.88199
C         48.98587        38.10078         0.29083
C         50.37200        40.08572        -0.49719
C         49.14505        39.59018         0.30262
C         50.31035        41.53156        -0.92098
C         49.18163        42.41898        -0.42095
C         50.39318        44.25962        -1.34111
C         48.98251        43.73948        -1.23674
C         51.36614        29.34874         1.51316
C         52.33222        31.71058         2.20108
C         51.76352        30.76881         1.20921
C         52.25146        32.94080         2.24139
C         51.40863        33.85606         1.43044
C         52.55102        36.14467         1.14623
C         51.35434        35.34697         1.65834
C         52.83029        37.32793         0.92147
C         52.00325        38.51346         0.81515
C         52.75783        40.32883        -0.77382
C         51.82515        39.57514        -0.01084
C         52.77038        41.44392        -1.31731
C         51.49288        42.12186        -1.78000
C         51.39546        43.60534        -1.62805
O         31.80413        31.90946        -1.83891
O         36.91724        38.75070         2.22893
O         47.42958        31.16125        -1.54892
O         38.28962        38.10112        -0.91202
O         37.41228        32.93937         1.28632
O         43.96371        42.79931        -1.06234
O         39.90183        28.31651         1.00151
O         45.15033        32.11655        -1.79124
O         44.59486        47.01403         0.41464
O         50.89121        38.18729         1.64099
O         38.29687        28.96854        -2.03985
O         45.56761        37.06035        -1.81093
O         48.68786        40.21532         1.53792
O         46.86733        34.36225        -1.84961
O         51.51522        33.43554         0.04774
O         32.88674        36.40210         2.53810
O         38.73722        31.74685        -2.04444
O         40.97685        37.33891         1.74358
O         45.42290        39.92121         2.18282
O         43.75454        35.33722        -2.42319
O         35.93327        29.60030         0.73192
H         35.35835        30.38440         0.95103
O         51.25151        41.74264        -3.12105
H         51.88834        42.20717        -3.70314
O         38.85812        26.52601        -1.97957
H         37.95407        26.41383        -2.34324
O         41.23969        26.18584         1.67302
H         40.69544        26.88562         2.10140
O         30.95691        42.45473         2.08184
H         30.02683        42.75915         2.11228
O         49.99582        30.82388        -1.19801
H         49.34499        30.84421        -1.93734
O         45.16797        26.80657        -1.31528
H         46.05160        27.04045        -1.68627
O         32.17178        38.85045        -0.96728
H         31.87721        39.53365        -1.60563
O         33.97155        39.95252         2.92781
H         34.74867        39.55978         3.38274
O         45.03723        28.83800         1.73487
H         45.63732        28.23154         2.22198
O         34.97860        36.10836        -0.85024
H         34.06027        36.41452        -1.00468
O         34.05173        42.38056        -0.99484
H         34.16781        41.45969        -1.31011
O         39.25620        47.38955         1.72305
H         38.44522        47.79679         2.09507
O         49.50819        31.42676         2.33578
H         50.04407        31.88243         3.02108
O         46.99147        28.64700        -1.35968
H         47.27398        29.35963        -1.98121
O         47.28987        32.84178         1.55546
H         47.38915        33.70391         2.03207
O         37.33758        35.77692        -1.42210
H         37.84587        36.44524        -1.93519
O         29.35248        28.94949         0.70126
H         29.57836        28.03562         0.44055
O         42.29289        45.48504        -2.06193
H         42.84280        44.70533        -2.29609
O         31.23816        33.96760         2.97398
H         31.24348        34.69663         3.62842
O         35.06354        32.04880         1.27217
H         35.82856        32.18272         1.88083
O         50.20762        39.37264        -1.75963
H         50.75958        39.81890        -2.44422
O         41.22144        35.09896        -1.91580
H         42.07089        34.95638        -2.40547
O         45.76996        42.33435         2.05248
H         45.70362        41.51932         2.63378
O         44.11436        31.06049         1.50815
H         43.57857        30.37543         1.96152
O         34.23069        44.04923         2.24839
H         33.39234        43.81818         2.70168
O         36.85233        35.31754         2.16765
H         37.44227        34.56537         2.40396
O         48.60388        43.37178        -2.54387
H         48.11559        44.11494        -2.95955
O         48.29293        44.86204         0.74811
H         47.49399        45.10499         1.27749
O         44.27596        29.37174        -1.77420
H         44.45685        28.43202        -2.03012
O         41.68270        39.61412         2.47382
H         41.30945        38.76105         2.80766
O         46.17290        43.76400        -2.03584
H         45.47111        43.07471        -2.12779
O         41.83441        47.31498         1.02342
H         41.03405        47.53838         1.56248
O         35.46568        29.22937        -2.89059
H         34.74947        28.84175        -3.43367
O         49.39289        33.73069        -1.30554
H         50.35824        33.90687        -1.40261
O         47.44287        29.51152         2.19164
H         48.21898        30.04597         2.48757
O         41.59348        29.43616        -2.09370
H         42.52128        29.65929        -2.35635
O         37.41902        27.41001         1.22477
H         36.69298        28.03062         1.46784
O         46.29068        39.82733        -1.34068
H         46.83322        39.20332        -1.86921
O         35.45805        32.91143        -2.25702
H         35.84263        32.41678        -3.01071
O         45.68439        44.86213         1.41765
H         45.13673        45.60257         1.76431
O         49.71944        42.74306         0.89037
H         49.48172        42.00095         1.50186
O         43.06367        41.93613         2.43149
H         42.78303        41.09003         2.85632
O         43.93258        26.58484         2.08160
H         43.05976        26.23251         2.38303
O         43.59838        38.65351        -1.69940
H         44.05908        38.03598        -2.31824
O         41.63500        34.02340         1.56532
H         41.57969        33.12805         1.96477
O         37.60554        41.01942        -0.71506
O         36.75903        42.68955         2.44418
H         35.99249        43.22217         2.76769
O         39.73001        45.59305        -1.41507
H         40.53220        45.37559        -1.95305
O         48.66231        36.12289        -1.71158
H         48.44630        35.32044        -2.24507
O         34.97492        44.77307        -1.18360
H         35.79271        44.99706        -1.67154
O         41.40297        25.30656        -1.86116
H         41.35423        24.45122        -2.33313
O         40.42277        45.11466         2.13333
H         40.58443        44.31455         2.67686
O         48.14943        35.24126         1.82318
H         47.75531        36.14279         1.95558
O         51.25274        35.57345         3.05500
H         51.23006        36.54390         3.20436
O         39.95674        31.34474         1.38195
H         39.12396        31.80710         1.62994
O         46.39969        37.67090         1.66645
H         46.03543        38.48280         2.17855
O         44.35565        34.20672        -3.07344
H         45.33550        34.33904        -2.93894
O         52.45377        30.84759         0.03088
H         51.87912        30.56273        -0.71601
