         429
 CSIRO Nanostructure Databank - Neutral Graphene Oxide Data Set
C          1.21778         3.26272         0.15869
C          0.08820         3.96286        -0.14826
C          1.16516         6.12805         0.30818
C          0.01976         5.37619         0.00233
C          1.15345         7.57340         0.41717
C         -0.07187         8.32467         0.49878
C          1.06880        10.49482         0.71257
C         -0.11755         9.69033         0.65658
C          1.06712        11.89405         0.61064
C         -0.13142        12.67996         0.54701
C          1.09858        14.78569         0.13287
C         -0.12498        14.02739         0.27543
C          1.06392        16.23332        -0.26623
C         -0.08860        17.10257        -0.01442
C          1.18418        19.17548        -0.52258
C         -0.03539        18.44616        -0.23729
C          1.17818        20.60098        -0.64307
C         -0.00259        21.37736        -0.68038
C          1.24233        23.50646        -0.67827
C          0.02628        22.75983        -0.76908
C          1.27061        24.94364        -0.68441
C          0.09781        25.69617        -0.95716
C          1.33881        27.78477        -0.77165
C          0.13447        27.06824        -1.01681
C          1.37193        29.22337        -0.83736
C          0.23285        29.97023        -1.21786
C          1.46125        32.05672        -0.99589
C          0.28020        31.34755        -1.31403
C          1.49864        33.51899        -1.08624
C          0.51108        34.20420        -1.90112
C          1.39044        36.40801        -1.26847
C          0.48323        35.55276        -2.03790
C          1.63848        37.79260        -1.70131
C          3.69574         3.36516         0.11896
C          2.43596         3.94106         0.71122
C          3.60251         6.15524         0.62318
C          2.40898         5.44295         0.51316
C          3.62182         7.57635         0.56932
C          2.37287         8.26527         0.51281
C          3.63988        10.44666         0.66090
C          2.34213         9.72662         0.77081
C          3.62438        11.95473         0.70788
C          2.34636        12.61702         0.21642
C          3.56768        14.90627         0.33392
C          2.30197        14.13376         0.27704
C          3.63274        16.29587        -0.12001
C          2.39173        16.98712        -0.47807
C          3.67103        19.11398        -0.39275
C          2.41280        18.45987        -0.48378
C          3.74298        20.57601        -0.55865
C          2.45448        21.33860        -0.74411
C          3.66238        23.48910        -0.24397
C          2.46112        22.80452        -0.53565
C          3.69091        24.90082        -0.16015
C          2.49532        25.63585        -0.44124
C          3.73799        27.77327        -0.14133
C          2.51870        27.06552        -0.45807
C          3.75603        29.19063        -0.17636
C          2.58610        29.91499        -0.53274
C          3.75564        32.06146        -0.04649
C          2.60162        31.34900        -0.57612
C          3.59149        33.52426         0.33262
C          2.52726        34.21473        -0.49551
C          3.78961        36.39163        -0.32521
C          2.51470        35.68313        -0.48839
C          3.85590        37.77576        -0.64074
C          2.75078        38.45024        -1.30317
C          6.12637         3.45689        -0.17227
C          4.90161         4.03345         0.24529
C          6.16507         6.18738         0.97082
C          4.87677         5.42075         0.80575
C          6.12473         7.68215         0.74009
C          4.89087         8.28201         0.53376
C          6.04885        10.48512        -0.19096
C          4.75805         9.67877        -0.03974
C          6.08832        11.98492        -0.01714
C          4.90750        12.69158         0.56040
C          6.13775        14.89009         0.15699
C          4.89812        14.19016         0.50772
C          6.09639        16.25591        -0.00324
C          4.84805        16.97886        -0.08414
C          6.13453        19.13292        -0.05702
C          4.87749        18.41581        -0.23212
C          6.12042        20.58345         0.14308
C          4.94084        21.27582        -0.05193
C          6.07555        23.45800         0.67803
C          4.83574        22.71906         0.23101
C          6.11155        24.91232         0.47648
C          4.90675        25.61471         0.19054
C          6.03659        27.72598         0.92206
C          4.89744        27.03258         0.22418
C          6.15406        29.21210         0.66813
C          5.06722        29.93923        -0.08732
C          5.91610        32.11884         1.14013
C          4.89376        31.39382         0.29311
C          6.09125        33.57933         0.72060
C          4.92723        34.26055         0.32663
C          6.19073        36.37124         0.19993
C          4.96054        35.66973         0.05847
C          6.22822        37.78525        -0.04149
C          5.06056        38.46401        -0.46649
C          8.61559         3.45894        -0.20904
C          7.37405         4.10013         0.05759
C          8.64680         5.87836         1.04326
C          7.39657         5.39156         0.67180
C          8.62809         8.02255         0.92358
C          7.34885         8.48447         0.54241
C          8.54906        10.52257        -0.13164
C          7.33546         9.79874         0.00529
C          8.55932        11.97234        -0.28013
C          7.37616        12.69671        -0.07670
C          8.55710        14.82712        -0.22030
C          7.37984        14.13835        -0.04102
C          8.59326        16.27791         0.16463
C          7.35569        16.99499        -0.37834
C          8.63053        19.11717         0.35761
C          7.32316        18.44802         0.01377
C          8.58905        20.61852         0.27205
C          7.37630        21.27527         0.38214
C          8.63380        23.46116         0.62756
C          7.37178        22.68753         0.93211
C          8.61805        24.85322         0.73360
C          7.35646        25.60807         0.67963
C          8.55037        27.68185         1.38597
C          7.34431        26.98410         0.82319
C          8.54846        29.18576         1.21571
C          7.28334        29.88545         1.07815
C          8.51810        32.11551         1.47530
C          7.23480        31.36206         1.32030
C          8.57367        33.58344         1.20463
C          7.33235        34.26534         0.86595
C          8.58000        36.41049         0.75402
C          7.37858        35.68419         0.61077
C          8.62941        37.80203         0.42899
C          7.44562        38.48099         0.07129
C         11.11030         3.41330        -0.19378
C          9.86177         4.09012         0.01217
C         11.10078         6.24902         0.68787
C          9.87032         5.40608         0.56660
C         11.09851         7.72959         0.41421
C          9.84607         8.50379         0.38350
C         11.01306        10.52227        -0.51942
C          9.78364         9.82653        -0.10927
C         11.02573        11.99644        -0.48955
C          9.79961        12.67017        -0.42701
C         11.06348        14.86168        -0.41052
C          9.78008        14.14278        -0.72642
C         11.05491        16.29844        -0.34052
C          9.85802        16.99637        -0.21494
C         11.10496        19.19012        -0.10653
C          9.80332        18.49022        -0.41896
C         11.08905        20.58437         0.15669
C          9.85534        21.31198         0.32187
C         11.10701        23.43481         0.57522
C          9.86243        22.72835         0.49917
C         11.07409        24.83036         0.82607
C          9.86057        25.57227         0.85687
C         11.02166        27.76520         0.97139
C          9.84623        27.00205         1.01807
C         11.01654        29.19202         1.06899
C          9.76193        29.87453         1.21848
C         11.10024        32.05102         1.63888
C          9.79514        31.32433         1.53316
C         11.06170        33.56194         1.61161
C          9.77874        34.25666         1.28221
C         11.08281        36.42738         0.86269
C          9.80403        35.77634         1.35283
C         11.09647        37.78201         0.44785
C          9.86701        38.48668         0.35100
C         13.56333         3.34999        -0.04879
C         12.33200         4.04625         0.02168
C         13.55458         6.25885        -0.07216
C         12.38248         5.49809         0.37450
C         13.55890         7.64905        -0.07109
C         12.29672         8.35918         0.08269
C         13.54348        10.58270        -0.27171
C         12.32146         9.77607        -0.37440
C         13.50705        11.97335        -0.43400
C         12.26254        12.69854        -0.51447
C         13.51071        14.86494        -0.50226
C         12.26787        14.14393        -0.46025
C         13.51785        16.29690        -0.46673
C         12.30955        17.02831        -0.37043
C         13.57412        19.14972        -0.09686
C         12.31233        18.45639        -0.21011
C         13.57451        20.58311         0.10072
C         12.34744        21.29342         0.23998
C         13.61281        23.38016         0.53993
C         12.35370        22.70650         0.45791
C         13.64155        24.81748         0.91666
C         12.33291        25.53922         1.10368
C         13.51800        27.74731         0.55950
C         12.31130        27.04326         1.06895
C         13.46883        29.25144         0.49723
C         12.25251        29.95289         0.98892
C         13.62956        32.01734         1.22764
C         12.32604        31.30983         1.24512
C         13.66492        33.54353         1.30462
C         12.36480        34.30620         1.46982
C         13.61793        36.41164         0.54724
C         12.36029        35.76311         1.09747
C         13.51422        37.72834        -0.12744
C         12.29351        38.42258         0.00397
C         16.03558         3.42533         0.09434
C         14.79496         4.04058        -0.08744
C         16.05372         6.24853        -0.53664
C         14.74764         5.48367        -0.42322
C         16.00768         7.71647        -0.38987
C         14.80490         8.38664        -0.25254
C         16.02428        10.61438        -0.51003
C         14.83152         9.87568         0.06501
C         15.97788        11.96926        -0.71319
C         14.74430        12.73027        -0.54669
C         15.92879        14.89248        -1.12399
C         14.72421        14.12550        -0.64016
C         15.97947        16.33277        -0.68883
C         14.77545        17.02039        -0.45760
C         16.09981        19.09998         0.04341
C         14.77420        18.43266        -0.22557
C         16.05569        20.59726        -0.07474
C         14.82476        21.29166         0.11140
C         16.15175        23.41774         0.49637
C         14.81832        22.70862         0.31397
C         16.10323        24.89983         0.17259
C         14.89887        25.60997         0.66246
C         15.91411        27.77708         0.01195
C         14.82119        27.07062         0.44588
C         15.93509        29.22441         0.06196
C         14.76820        29.94193         0.42713
C         16.04586        32.01032         0.56075
C         14.82154        31.31690         0.70143
C         16.01581        33.45842         0.47867
C         14.82046        34.20112         0.64334
C         15.79194        36.07807        -0.59901
C         14.76337        35.54794         0.19937
C         15.84217        37.49933        -1.15740
C         14.58422        38.24600        -0.84658
C         18.48744         3.51989         0.54945
C         17.25912         4.16858         0.11404
C         18.58522         6.27400        -0.25336
C         17.28238         5.53264        -0.16892
C         18.46673         7.77472        -0.08961
C         17.27706         8.41834        -0.34822
C         18.54294        10.57992        -0.53753
C         17.27517         9.83130        -0.86375
C         18.57050        11.99070        -0.91694
C         17.21093        12.71698        -1.07973
C         18.43774        14.86075        -1.02720
C         17.23262        14.16431        -0.94446
C         18.40375        16.30503        -1.13566
C         17.22414        17.02930        -0.86607
C         18.42041        19.18934        -0.91830
C         17.26404        18.45877        -0.68020
C         18.47958        20.60529        -0.62905
C         17.27895        21.29743        -0.25583
C         18.45677        23.42666        -0.49522
C         17.30121        22.71888        -0.17999
C         18.39823        24.89909        -0.82402
C         17.15492        25.58921        -0.32569
C         18.41485        27.78612        -0.31967
C         17.10135        27.07531        -0.59890
C         18.42310        29.16924        -0.24777
C         17.18678        29.90909        -0.04468
C         18.52167        32.00736         0.27401
C         17.22597        31.29677         0.20600
C         18.49732        33.54476         0.17212
C         17.15785        34.11362        -0.05798
C         18.70251        36.47805        -0.51806
C         16.93368        35.28803        -0.77430
C         18.22343        37.74669        -0.07379
C         16.99451        38.28914        -0.53159
C         19.62278         4.23381         0.80256
C         20.78842         6.42099         0.86197
C         19.69746         5.64620         0.54037
C         20.80835         7.82550         0.60799
C         19.69430         8.51206         0.14933
C         20.86579        10.76851         0.14879
C         19.68306         9.96459        -0.05290
C         20.90069        12.11070        -0.13287
C         19.75890        12.80199        -0.64836
C         20.92326        14.96429        -1.03354
C         19.71302        14.18602        -0.90084
C         20.89895        16.26321        -1.42316
C         19.63009        16.99470        -1.53868
C         20.88681        19.28613        -1.41137
C         19.61866        18.54964        -1.49000
C         20.91067        20.59265        -1.06138
C         19.69308        21.32015        -0.77165
C         20.88928        23.53279        -0.77237
C         19.68987        22.74683        -0.70779
C         20.88112        24.89691        -0.58243
C         19.66891        25.64634        -0.48349
C         20.86220        27.76176         0.05324
C         19.64879        27.03011        -0.29002
C         20.90320        29.10815         0.01584
C         19.73248        29.89314        -0.52310
C         20.90666        32.10458        -0.26664
C         19.77160        31.35281        -0.12123
C         20.92274        33.53990        -0.14922
C         19.77065        34.27698        -0.07025
C         20.54526        36.45895         1.00397
C         19.73709        35.75393         0.09059
C         20.23972        37.79823         1.31380
C         19.09207        38.42329         0.83826
O         13.96981        32.74113         2.46949
O         19.45345        17.81873        -2.74420
O         13.17925        28.44372        -0.69946
O         11.65869         9.93369        -1.69840
O         18.58294        32.84988         1.46262
O          1.34957        36.26356         0.18121
O          4.39232        12.31469         1.88486
O          5.88866        11.36214        -1.35707
O         11.74916        34.13091         2.78660
O          1.64661        16.39498        -1.60658
O         14.55055        25.14638         2.02759
O         17.95563        12.23224        -2.24631
O         15.34361         5.76787        -1.73564
O         17.99282        35.81705        -1.54184
O         13.30976        36.49964         1.97086
O         11.99089         5.80862         1.76459
O          3.31006        20.98675        -1.91392
O          5.45187         5.64602         2.14322
O          3.21671         9.96271         1.96169
O          4.22481        14.77239         1.65918
O         12.37893        26.33548         2.34204
O         10.45806        31.52337         2.84235
O          7.73854        31.72279         2.66290
O          8.68785         7.00669         1.86848
O          5.05954        23.04254         1.67281
O          5.67994        27.64550         2.35900
H          6.52852        27.68229         2.86912
O         15.99343        37.42688        -2.60202
H         16.84744        36.96879        -2.77513
O         16.89271        27.22895        -2.04398
H         17.39007        26.49768        -2.48678
O         18.31347        24.92736        -2.30565
H         19.13656        24.51523        -2.64759
O          9.78490        36.08852         2.79447
H         10.52851        35.57433         3.19917
O         16.37171        18.83439         1.48377
H         15.75738        19.39620         2.00377
O          8.52890        16.24716         1.61975
H          8.69800        17.16669         1.95427
O          8.91790        18.87830         1.78515
H          8.32976        19.46197         2.31185
O         18.99973         6.13240        -1.66878
H         18.30660         6.55780        -2.22009
O          7.45579        16.95321        -1.84401
H          6.61678        17.30328        -2.21307
O          4.26789         9.42984        -1.39042
H          4.52819        10.20762        -1.93908
O          9.56871        18.70548        -1.84213
H          8.87615        18.05418        -2.12906
O          9.67749        14.22315        -2.21363
H         10.40694        13.67937        -2.58335
O         17.23317         9.65748        -2.32169
H         17.40596        10.55119        -2.71412
O         15.73871        14.95204        -2.59282
H         16.52910        15.39404        -2.97219
O         16.47240        23.31018         1.92156
H         15.81170        23.87704         2.39544
O          8.41759        27.50241         2.86555
H          9.17992        27.95680         3.28781
O         14.99460         9.93937         1.53209
H         14.90801        10.87903         1.79990
O          2.45791         3.69001         2.16135
H          3.23438         4.16546         2.52939
O          3.10051        33.57814         1.70124
H          3.76322        33.09469         2.25955
O          7.45005        22.47693         2.38390
H          6.52012        22.49185         2.71530
O          5.58779        29.95678        -1.48348
H          4.86810        30.29974        -2.05620
O         19.86775        29.90166        -1.98816
H         19.72083        28.98332        -2.30066
O          2.45935        12.35096        -1.24176
H          1.67062        12.74208        -1.67683
O          5.29434        32.16950         2.46630
H          6.03491        32.27410         3.11349
H          1.23477         2.16701         0.06344
H         -0.80611         3.43155        -0.50574
H         -0.93816         5.87783        -0.19115
H         -1.02502         7.77943         0.44822
H         -1.10141        10.17916         0.69521
H         -1.09926        12.18909         0.72372
H         -1.08377        14.56025         0.20980
H         -1.01619        16.65811         0.37511
H         -0.95438        19.02649        -0.07417
H         -0.98199        20.87966        -0.67768
H         -0.93123        23.29164        -0.84152
H         -0.85285        25.18299        -1.15081
H         -0.79287        27.60761        -1.24658
H         -0.71090        29.46279        -1.45376
H         -0.62844        31.89139        -1.60297
H         -0.18362        33.59875        -2.49966
H         -0.18637        36.02498        -2.77231
H          0.88789        38.28849        -2.33483
H          3.66878         2.37328        -0.35770
H          2.90496        39.50002        -1.59409
H          6.11609         2.44477        -0.60287
H          5.11839        39.53634        -0.70372
H          8.60468         2.43552        -0.61155
H          7.48282        39.55575        -0.15880
H         11.09680         2.35576        -0.49597
H          9.87536        39.54934         0.06871
H         13.55798         2.24961        -0.06824
H         12.21723        39.44544        -0.39382
H         16.07086         2.35021         0.32567
H         14.47160        39.24049        -1.30608
H         18.45740         2.43932         0.75116
H         16.75294        39.30813        -0.18612
H         20.50702         3.73217         1.22389
H         21.66193         5.96226         1.34888
H         21.73177         8.37035         0.84769
H         21.77255        10.29365         0.54673
H         21.82517        12.67199         0.06265
H         21.89072        14.45149        -0.93962
H         21.83946        16.78322        -1.64892
H         21.81415        18.78390        -1.71806
H         21.87160        21.12408        -1.05400
H         21.86013        23.03120        -0.87959
H         21.84473        25.42243        -0.52947
H         21.74503        27.19864         0.38773
H         21.82386        29.64124         0.29421
H         21.84716        31.61345        -0.55587
H         21.89045        34.05371        -0.24130
H         21.38116        35.95457         1.50766
H         20.88666        38.33666         2.02056
H         18.82801        39.43065         1.18966
