         424
 CSIRO Nanostructure Databank - Neutral Graphene Oxide Data Set
C          1.39257         2.18696         1.87962
C          1.32481         3.56861         1.63494
C          2.60027         1.51123         1.77196
C          2.47218         4.29151         1.29574
C          1.28548         6.55189         1.52537
C          1.36813         7.88813         1.66960
C          2.44915         5.77466         0.95351
C          2.58341         8.63228         1.33753
C          1.39474        10.83031         1.46761
C          1.40612        12.20841         1.39934
C          2.57122        10.07115         1.24250
C          2.58727        12.91944         1.05823
C          1.44352        15.15243         1.20757
C          1.49021        16.54578         1.30968
C          2.60738        14.38693         1.03821
C          2.71576        17.23133         1.27669
C          2.79184        18.66147         1.42183
C          3.77246         2.20370         1.38961
C          3.70100         3.60534         1.14290
C          5.03358         1.52060         1.31458
C          4.90588         4.32522         0.76326
C          3.76279         6.43343         1.39380
C          3.76517         7.92678         1.12692
C          4.95109         5.69684         0.81436
C          4.99342         8.61157         0.84808
C          3.77321        10.76608         0.91054
C          3.76013        12.18721         0.80470
C          4.99261        10.02827         0.72169
C          4.96658        12.90108         0.24779
C          3.86421        15.06615         0.93112
C          3.91997        16.48684         1.08796
C          5.06278        14.34368         0.68093
C          5.17183        17.16214         1.04410
C          3.99149        19.31276         1.38904
C          5.22662        18.59382         1.20248
C          6.18348         2.14045         0.85132
C          6.04781         3.51158         0.19627
C          7.42692         1.45038         0.83501
C          7.37345         4.28009         0.17364
C          6.19893         6.42638         0.64395
C          6.21599         7.87602         0.71323
C          7.38006         5.72832         0.46916
C          7.44843         8.57098         0.52594
C          6.23102        10.73187         0.49587
C          6.25248        12.13744         0.40816
C          7.45900         9.99738         0.42461
C          7.48518        12.83619         0.34382
C          6.30058        15.00627         0.64950
C          6.36687        16.42569         0.84998
C          7.52149        14.26607         0.44094
C          7.62680        17.10237         0.82683
C          6.45555        19.24898         1.17282
C          7.67380        18.53317         0.98962
C          8.65263         2.07358         0.56304
C          8.66497         3.53522         0.29984
C          9.88066         1.38501         0.52887
C          9.92159         4.28345         0.52286
C          8.67060         6.40984         0.82405
C          8.68468         7.86478         0.46461
C          9.93161         5.65216         0.49172
C          9.91043         8.53023         0.29063
C          8.69296        10.68048         0.25882
C          8.70638        12.10617         0.23536
C          9.92662         9.95554         0.17549
C          9.94338        12.80598         0.14168
C          8.76648        14.93793         0.45953
C          8.82393        16.37228         0.64552
C          9.96368        14.19876         0.29295
C         10.07840        17.05429         0.63063
C          8.91645        19.19409         0.96062
C         10.11951        18.47961         0.78236
C         11.12554         2.05144         0.43085
C         11.19339         3.52238         0.76985
C         12.32334         1.37203         0.23423
C         12.39979         4.23637         0.22201
C         11.17248         6.38443         0.33161
C         11.15983         7.79355         0.20608
C         12.38522         5.65290         0.12190
C         12.37368         8.49326        -0.07279
C         11.15995        10.64434        -0.00677
C         11.18436        12.07350        -0.05668
C         12.37862         9.91633        -0.16805
C         12.38125        12.75246        -0.32439
C         11.31060        14.84439         0.46545
C         11.29468        16.34643         0.44092
C         12.32470        14.25813        -0.51108
C         12.52473        17.00638         0.38849
C         11.39174        19.12631         0.79055
C         12.56746        18.41956         0.60479
C         13.57183         2.05864         0.09867
C         13.57881         3.51032        -0.01052
C         14.78026         1.36750         0.03374
C         14.78018         4.19044        -0.35836
C         13.58783         6.35140        -0.20999
C         13.59106         7.77153        -0.28572
C         14.78577         5.62499        -0.47717
C         14.80077         8.46261        -0.59812
C         13.59531        10.61089        -0.44224
C         13.59211        12.03611        -0.53568
C         14.80810         9.88916        -0.66964
C         14.80664        12.71451        -0.85635
C         13.65907        14.94012        -0.38382
C         13.74191        16.25891         0.03027
C         14.82583        14.22131        -1.01867
C         14.99350        16.97929        -0.00420
C         13.88666        19.14530         0.72892
C         15.08303        18.33799         0.28177
C         16.01606         2.04941        -0.16589
C         16.00189         3.46316        -0.45068
C         17.24511         1.37550        -0.11205
C         17.20821         4.13687        -0.75714
C         15.96340         6.31906        -0.84136
C         15.99389         7.72965        -0.88444
C         17.13883         5.52566        -1.34460
C         17.21003         8.44015        -1.21647
C         16.00653        10.58213        -1.01202
C         15.98178        12.00264        -1.10415
C         17.21906         9.84656        -1.27276
C         17.20218        12.74076        -1.60366
C         16.13232        14.76704        -0.41136
C         16.21011        16.29137        -0.58982
C         17.35510        14.10138        -0.98263
C         17.53046        16.84166        -0.04632
C         16.32118        19.02081         0.13524
C         17.52176        18.35089        -0.13494
C         18.46452         2.06603        -0.30656
C         18.43627         3.46624        -0.66037
C         19.70598         1.40872        -0.18335
C         19.66751         4.16980        -0.89268
C         18.44128         6.27712        -1.31665
C         18.43239         7.70701        -1.45941
C         19.65027         5.57199        -1.23820
C         19.62493         8.39175        -1.76009
C         18.45882        10.55330        -1.53465
C         18.48571        11.95259        -1.57902
C         19.67707         9.81137        -1.75743
C         19.71189        12.66787        -1.76282
C         18.57057        14.78030        -1.09625
C         18.69117        16.16976        -0.74447
C         19.71795        14.07787        -1.64064
C         19.86978        16.89900        -1.03311
C         18.71560        19.02814        -0.39831
C         19.88366        18.35186        -0.82204
C         20.91775         2.09830        -0.38484
C         20.89265         3.49646        -0.74824
C         22.16420         1.44949        -0.24779
C         22.12271         4.18650        -0.99056
C         20.89500         6.23342        -1.54533
C         20.81330         7.58572        -2.22426
C         22.08909         5.54858        -1.45470
C         22.11638         8.34388        -2.19191
C         20.91307        10.49955        -1.95772
C         20.95150        11.93003        -1.94181
C         22.14078         9.73965        -2.14769
C         22.19826        12.60893        -1.98836
C         20.90384        14.85769        -1.96794
C         20.97692        16.27189        -1.62309
C         22.27081        14.07210        -2.11908
C         22.20380        17.02582        -2.08693
C         21.03504        19.07708        -1.12717
C         22.21982        18.46584        -1.60091
C         23.37515         2.14439        -0.41537
C         23.35805         3.53996        -0.79044
C         24.61137         1.46412        -0.28352
C         24.59433         4.27354        -0.92310
C         23.34479         6.04369        -2.13223
C         23.34621         7.54793        -2.41669
C         24.62142         5.54446        -1.46314
C         24.66137         8.26305        -2.47968
C         23.38563        10.46831        -2.25599
C         23.41374        11.85462        -2.08213
C         24.64334         9.75896        -2.58377
C         24.67578        12.57980        -2.09122
C         23.52749        14.80843        -1.79330
C         23.50773        16.28026        -1.74906
C         24.66547        13.98876        -1.72248
C         24.62589        17.10888        -1.67470
C         23.36992        19.21805        -1.74230
C         24.62236        18.55098        -1.96186
C         25.83635         2.14511        -0.34310
C         25.83014         3.65985        -0.31657
C         27.04699         1.45980        -0.25946
C         27.11015         4.27020        -0.82725
C         25.87228         6.28699        -1.59222
C         25.90663         7.59777        -2.03974
C         27.12038         5.59437        -1.28379
C         27.21814         8.30590        -2.36923
C         25.94933        10.51397        -2.61194
C         25.88779        11.96231        -2.36247
C         27.21909         9.81996        -2.26167
C         27.12430        12.75276        -2.73926
C         25.98515        14.47236        -1.39191
C         25.95048        16.64222        -1.35966
C         27.12815        14.04965        -1.99781
C         27.07606        17.13435        -1.93044
C         25.78646        19.21576        -2.28033
C         27.11029        18.52111        -2.50168
C         28.30313         2.13447        -0.35276
C         28.31893         3.54385        -0.65993
C         29.51057         1.44211        -0.21234
C         29.57222         4.19873        -0.83823
C         28.37575         6.29194        -1.40420
C         28.41275         7.67813        -1.70920
C         29.58295         5.60757        -1.11131
C         29.58610         8.43438        -1.46188
C         28.38120        10.53467        -2.04624
C         28.53361        11.96800        -2.56495
C         29.60773         9.86183        -1.63664
C         29.62810        12.78050        -1.83987
C         28.36150        14.87023        -2.03551
C         28.34189        16.36160        -1.95482
C         29.60721        14.13423        -1.72690
C         29.52996        17.09366        -1.48168
C         28.25664        19.21496        -1.78339
C         29.38613        18.52745        -1.31685
C         30.76335         2.10031        -0.35992
C         30.77785         3.48567        -0.68922
C         31.98332         1.41033        -0.15577
C         32.07696         4.16825        -1.01091
C         30.80928         6.33518        -1.00230
C         30.78408         7.75780        -1.06512
C         32.02436         5.65326        -0.76707
C         31.96147         8.49270        -0.74813
C         30.78705        10.58757        -1.29552
C         30.95376        12.04615        -1.72320
C         31.90874         9.91662        -0.77805
C         31.96497        12.82539        -0.89109
C         30.88604        14.96179        -1.63726
C         30.70669        16.42134        -1.19075
C         31.92573        14.19781        -0.85984
C         31.84795        17.16070        -0.72827
C         30.48084        19.21742        -0.73101
C         31.70721        18.58771        -0.45203
C         33.22586         2.10180        -0.11545
C         33.27447         3.50277        -0.39500
C         34.40903         1.43308         0.27105
C         34.47145         4.23766        -0.25124
C         33.21783         6.37566        -0.51955
C         33.18422         7.80451        -0.46436
C         34.45238         5.66268        -0.37270
C         34.39598         8.55063        -0.20550
C         33.00817        10.64882        -0.04665
C         33.08373        12.12485        -0.31141
C         34.35105         9.95389        -0.07814
C         34.24004        12.81745         0.08072
C         32.89573        14.95248         0.00845
C         33.01278        16.40982        -0.37456
C         34.23861        14.25663         0.11191
C         34.25445        17.00404        -0.23188
C         32.67779        19.36511         0.27283
C         34.04546        19.06298         0.27381
C         35.62731         2.12909         0.41160
C         35.67743         3.54480         0.14893
C         36.80021         1.45962         0.84072
C         36.88427         4.23632         0.35086
C         35.70108         6.42453        -0.36037
C         35.65766         7.88144        -0.12217
C         36.99429         5.66005         0.00654
C         36.83561         8.59231         0.16339
C         35.52924        10.68195         0.22345
C         35.46337        12.10997         0.38189
C         36.78270        10.00238         0.38770
C         36.60877        12.82503         0.79791
C         35.38982        14.95649         0.44534
C         35.39367        16.41320         0.41377
C         36.58061        14.26160         0.87078
C         36.42061        17.18515         0.95087
C         35.04968        19.35477         1.19885
C         36.28569        18.60511         1.31078
C         37.98940         2.15798         1.08179
C         38.03354         3.57666         0.86387
C         39.16916         1.48941         1.54968
C         39.22193         4.30950         1.16128
C         38.14498         6.42176         0.48999
C         38.13257         7.87531         0.28230
C         39.25494         5.75123         1.01867
C         39.33286         8.65325         0.87659
C         37.92497        10.73204         0.87637
C         37.81809        12.13730         1.12020
C         39.13611        10.06842         1.22768
C         38.91181        12.86797         1.68161
C         37.67059        14.98017         1.36107
C         37.74227        16.48950         1.24282
C         38.82436        14.28956         1.84957
C         38.43473        17.09533         2.46434
C         37.30504        19.24148         2.00960
C         38.63726        18.61666         2.30128
C         40.31151         2.19581         1.81683
C         40.35642         3.61751         1.65307
C         41.52821         4.35058         1.99921
C         40.42009         6.47181         1.47788
C         40.40152         7.89131         1.53991
C         41.54792         5.72362         1.93450
C         41.37075         8.63106         2.26179
C         40.17311        10.74670         1.90590
C         40.08672        12.17640         2.10160
C         41.29129        10.00233         2.38964
C         41.14655        12.91559         2.67210
C         39.88189        14.99338         2.50541
C         39.72094        16.39584         2.85829
C         41.03964        14.28232         2.87913
C         40.54898        17.06397         3.72027
C         39.30836        19.16392         3.54237
C         40.25248        18.41602         4.15430
O         26.06088        15.54543        -0.49435
O         28.53308        15.69275        -3.28107
O         24.02450         7.74813        -3.72384
O         29.06058        11.77344        -3.84846
O         25.28626        10.12712        -3.87178
O         39.20292         8.38678        -0.56320
O          8.13487         3.91561        -1.04797
O         34.46405        18.24881        -0.81386
O         21.51573        14.54764        -3.27318
O         36.65314         5.98765        -1.38753
O         39.53359        18.93356         1.20437
H         39.29617        18.34678         0.44625
O         16.02597        14.42795         0.99362
H         16.70032        14.95902         1.48123
O         13.84496        20.40121         0.03508
H         13.72191        20.21720        -0.91873
O          8.67537         6.41609         2.32380
H          9.37949         7.03972         2.60504
O          3.83908         6.27393         2.84117
H          4.68662         6.66282         3.14276
O         27.36848         8.06329        -3.81513
H         26.69988         8.63589        -4.26463
O         37.50519        16.89212         3.55972
H         37.92297        17.24776         4.37279
O         23.29822         5.36952        -3.43065
H         23.87106         5.90555        -4.03231
O          5.67274         3.24156        -1.18256
H          6.51568         3.20042        -1.69437
O         27.40256        18.50179        -3.92784
H         27.87234        17.66134        -4.12509
O         26.97113        13.00346        -4.14517
H         27.76267        12.55780        -4.57196
O         20.56769         7.28554        -3.64673
H         21.35584         6.79864        -3.97746
O          2.38605         5.88052        -0.49287
H          1.62120         5.35578        -0.80687
O         25.78006         4.01901         1.11375
H         26.53611         3.57218         1.55077
O         31.51911        11.95763        -3.05087
H         30.73245        11.82911        -3.66491
O         11.36019         3.53504         2.24258
H         11.39438         4.47463         2.52291
O         22.13083        17.13834        -3.53872
H         22.00587        16.22271        -3.89016
O         32.58201        10.55862         1.38321
H         33.33423        10.87872         1.92670
O          4.74081        12.95516        -1.21639
H          3.90386        13.44653        -1.36078
O         11.87054        14.51147        -1.86887
H         12.65141        14.40369        -2.46044
O         16.24134        16.61593        -1.99839
H         15.51929        16.09877        -2.43891
O         16.91970        12.99366        -3.05731
H         17.72270        13.41650        -3.43477
O         32.33766        14.93797         1.37487
H         32.23933        13.99761         1.63743
O         32.25481         4.02110        -2.48078
H         33.10196         4.45783        -2.71555
O         14.73710        14.49095        -2.45598
H         15.44491        13.93873        -2.89686
O         31.36101        15.07199        -3.01155
H         30.56639        15.22642        -3.57438
O         11.78229        14.46241         1.79697
H         11.17444        14.85813         2.45589
O         16.85960         5.31723        -2.78635
H         17.68110         4.97161        -3.19701
O         17.63477        16.52123         1.37993
H         18.47467        16.90415         1.71040
O         38.58423        16.73488         0.06684
H         38.12913        16.35590        -0.71500
H          0.48069         1.64285         2.16261
H          0.35272         4.07293         1.72747
H          2.65170         0.43119         1.97125
H          0.33650         6.04266         1.74976
H          0.49131         8.44057         2.03598
H          0.45177        10.32625         1.71624
H          0.47692        12.75442         1.60970
H          0.46348        14.65993         1.26687
H          0.55665        17.11186         1.44007
H          1.85770        19.22471         1.56362
H          5.08569         0.47946         1.67095
H          4.03348        20.40582         1.50462
H          7.43152         0.38569         1.11888
H          6.49271        20.34196         1.29482
H          9.87119         0.28417         0.56802
H          8.94982        20.28726         1.08028
H         12.31338         0.27657         0.12318
H         11.43853        20.21320         0.95346
H         14.79000         0.27466         0.16114
H         14.03321        19.40100         1.81724
H         17.26611         0.29794         0.10841
H         16.31975        20.11968         0.20140
H         19.72904         0.34193         0.08412
H         18.72938        20.12884        -0.36823
H         22.18886         0.38186         0.01670
H         21.04455        20.16239        -0.94061
H         24.60814         0.37226        -0.14356
H         23.35094        20.30545        -1.57292
H         27.04085         0.36383        -0.15788
H         25.74038        20.29788        -2.47777
H         29.49340         0.36648         0.01744
H         28.22843        20.31065        -1.66908
H         31.96236         0.33623         0.07935
H         30.38229        20.29482        -0.53316
H         34.37409         0.35615         0.49245
H         32.30790        20.19887         0.88772
H         36.76358         0.37386         1.01431
H         34.89508        20.17565         1.91485
H         39.13784         0.40018         1.69646
H         37.15051        20.29061         2.30983
H         41.21121         1.67998         2.18271
H         42.41509         3.80267         2.34869
H         42.46484         6.25339         2.22547
H         42.21240         8.10919         2.73661
H         42.08764        10.51737         2.94174
H         42.07442        12.41308         2.97408
H         41.87966        14.81250         3.34787
H         41.44167        16.57961         4.14087
H         39.11273        20.20075         3.85446
H         40.82771        18.82314         4.99919
