         638
 CSIRO Nanostructure Databank - Neutral Graphene Oxide Data Set
C         24.74177        66.64431        -5.99307
C         24.84847        67.80877        -6.78685
C         23.83550        68.16626        -7.71322
C         25.04541        70.17304        -8.34623
C         23.94506        69.33031        -8.47784
C         26.50836        63.67374        -2.48572
C         26.64626        64.78153        -3.31970
C         25.64224        65.13259        -4.26664
C         26.91747        67.13422        -4.94130
C         25.74514        66.29198        -5.06206
C         27.03294        68.32124        -5.74548
C         26.00022        68.66054        -6.65095
C         27.20366        70.71561        -7.27354
C         26.09199        69.86375        -7.43256
C         28.76058        60.14301         0.19814
C         28.71248        61.46799        -0.33068
C         27.59105        61.94564        -0.99566
C         28.90347        63.88570        -1.80958
C         27.51297        63.39386        -1.40047
C         28.87895        65.30092        -2.31811
C         27.81795        65.64406        -3.20968
C         29.24608        67.52152        -4.02919
C         27.92398        66.79014        -4.02480
C         29.19584        68.88159        -4.67845
C         28.16378        69.19130        -5.59231
C         29.35855        71.25805        -6.19645
C         28.23901        70.41125        -6.35734
C         30.80851        56.72743         3.08657
C         30.80897        57.98893         2.52276
C         29.82919        58.40051         1.57511
C         30.91486        60.60887         1.29742
C         29.81420        59.70022         1.02091
C         30.91205        61.90210         0.70985
C         29.85328        62.35448        -0.08955
C         30.94665        64.54844        -0.48645
C         29.91322        63.63914        -0.71577
C         31.01130        65.80262        -1.19610
C         29.93906        66.17230        -2.05699
C         31.17209        68.31209        -2.63966
C         29.85731        67.57293        -2.62980
C         31.29454        69.46103        -3.49176
C         30.27511        69.75507        -4.47822
C         31.53185        71.77029        -5.14408
C         30.38278        70.95490        -5.27192
C         33.09177        52.92139         5.37134
C         33.01604        54.37405         4.97612
C         31.90748        54.89349         4.43017
C         33.13160        56.99831         3.95361
C         31.73944        56.37495         4.22317
C         33.03191        58.51008         3.73723
C         31.84736        58.97864         2.93115
C         33.17262        60.97709         2.23424
C         31.96885        60.22651         2.15913
C         33.24497        62.25152         1.60209
C         31.98926        62.83401         1.07980
C         33.24280        65.08705         0.64681
C         31.96342        64.24446         0.54307
C         33.31925        66.20824        -0.37898
C         32.16484        66.64771        -1.08364
C         33.44717        68.66258        -1.78087
C         32.23826        67.88500        -1.82422
C         33.34636        70.10873        -2.22166
C         32.40023        70.31273        -3.37012
C         33.74549        72.22746        -4.14784
C         32.56201        71.45363        -4.22454
C         35.30218        48.75359         3.75829
C         35.36935        50.24763         3.93106
C         34.24864        50.90895         4.44930
C         35.45371        53.03609         4.47172
C         34.27862        52.27417         4.72151
C         35.50296        54.45186         4.71044
C         34.28786        55.13494         5.34111
C         35.47454        57.32896         4.68222
C         34.16983        56.66767         5.06010
C         35.46186        58.81934         4.52805
C         34.29150        59.29548         3.66895
C         35.68251        61.06641         2.59047
C         34.34224        60.43975         2.91176
C         35.62965        62.49286         2.07453
C         34.44734        62.97428         1.47997
C         35.74800        65.00034         0.70244
C         34.49251        64.17982         0.55819
C         35.79586        66.24410        -0.07825
C         34.53998        66.86981        -0.55760
C         35.93687        68.85634        -1.41780
C         34.60538        68.13408        -1.22296
C         35.73984        70.38283        -1.43388
C         34.67392        70.77675        -2.40826
C         36.05968        72.58715        -3.30824
C         34.82930        71.86391        -3.28692
C         37.14079        45.02087         1.06351
C         37.30407        46.28676         1.63516
C         36.25035        46.92742         2.36215
C         37.62366        48.92429         2.71724
C         36.40754        48.18708         2.90241
C         37.72296        50.29348         3.15117
C         36.56136        50.96353         3.69051
C         37.83829        53.08087         3.82424
C         36.61311        52.36366         3.97789
C         37.90436        54.46530         4.14946
C         36.70730        55.13736         4.56105
C         38.03847        57.34641         4.61486
C         36.73579        56.60380         4.79061
C         37.97776        58.78556         4.23607
C         36.77683        59.43724         4.12851
C         38.00147        61.50954         3.36574
C         36.68094        60.89923         3.74526
C         37.99810        62.74970         2.69105
C         36.81425        63.25545         2.06794
C         38.05511        65.36943         1.49089
C         36.85957        64.53944         1.38231
C         38.09453        66.63516         0.94119
C         37.04270        67.10246         0.04195
C         38.05137        69.36331        -0.14339
C         37.01015        68.51074        -0.39681
C         38.15815        70.63347        -0.87458
C         37.05647        71.07993        -1.63013
C         38.41348        72.87097        -2.58888
C         37.16851        72.20208        -2.50579
C         38.90849        41.54523        -2.05568
C         39.23923        42.36276        -0.79119
C         38.08080        43.11235        -0.19841
C         39.50607        45.02977         0.36222
C         38.22051        44.36238         0.39346
C         39.64849        46.33538         0.85201
C         38.55371        46.99072         1.49835
C         39.92613        49.03363         1.77794
C         38.69776        48.30417         2.01251
C         40.17923        50.33216         2.51944
C         38.91619        51.02484         2.98588
C         40.25873        53.09520         3.27534
C         38.99512        52.39113         3.33634
C         40.34190        54.42353         3.79741
C         39.18229        55.14330         4.10914
C         40.45380        57.26845         4.01152
C         39.26937        56.58807         4.26678
C         40.48575        58.73226         3.97158
C         39.23655        59.47554         4.01039
C         40.46440        61.58256         3.45067
C         39.20857        60.84325         3.68480
C         40.33973        63.05754         3.34942
C         39.19406        63.56022         2.68471
C         40.43072        65.65601         2.25525
C         39.21513        64.88139         2.20639
C         40.47426        66.96582         1.73013
C         39.19203        67.55595         1.28917
C         40.46065        69.70516         0.76785
C         39.15595        68.95595         0.77506
C         40.53644        70.94656        -0.09867
C         39.38206        71.33554        -0.93334
C         40.77748        73.11496        -1.91741
C         39.52164        72.45333        -1.81718
C         41.08696        37.33795        -3.74269
C         41.15830        38.73100        -3.40149
C         40.03398        39.40849        -2.87286
C         41.38042        41.38770        -2.48991
C         40.12606        40.73519        -2.45157
C         41.49251        42.82749        -2.04684
C         40.46100        43.22361        -1.00806
C         41.97262        44.96227        -0.03992
C         40.61074        44.39034        -0.31867
C         41.98509        46.45343         0.09784
C         40.88227        47.08058         0.62722
C         42.17077        49.23739         0.71571
C         40.93591        48.47387         1.02915
C         42.27796        50.68059         1.11239
C         41.04155        51.33511         1.72776
C         42.64673        53.14599         2.59858
C         41.35744        52.51742         2.61217
C         42.81225        54.35392         3.26477
C         41.70127        55.03182         4.04424
C         42.88891        57.19632         3.59172
C         41.71057        56.53997         3.83464
C         42.86372        58.63916         3.16930
C         41.69532        59.38313         3.76790
C         43.08756        61.49996         3.63939
C         41.75615        60.84574         3.56753
C         43.24348        62.87072         3.83460
C         41.38493        63.93079         3.60704
C         42.89881        65.75092         2.73597
C         41.60397        65.13717         2.89370
C         42.91897        67.03679         2.10358
C         41.69452        67.67535         1.67299
C         42.94822        69.65775         0.90208
C         41.72521        69.00449         1.11360
C         43.01162        70.91771         0.17565
C         41.86394        71.47596        -0.42209
C         43.17551        73.30817        -1.37304
C         41.93934        72.63886        -1.26059
C         43.22676        34.61800        -5.14603
C         42.11588        35.27754        -4.60167
C         43.29875        37.47562        -4.90103
C         42.14586        36.66903        -4.34417
C         43.52827        38.78186        -4.17828
C         42.38303        39.44624        -3.57771
C         43.69087        41.62404        -3.41251
C         42.48494        40.76665        -3.09213
C         43.98329        42.62630        -2.30154
C         42.91109        43.22006        -1.67584
C         44.34013        44.97469        -0.73195
C         43.10527        44.41068        -0.86657
C         44.50117        46.28401        -0.00723
C         43.26665        47.15875        -0.23847
C         44.62101        49.14810         0.38371
C         43.40558        48.50349         0.41998
C         44.75289        50.52516         0.82959
C         43.63279        51.23290         1.32744
C         45.09784        53.05007         2.05662
C         43.80204        52.48080         1.98456
C         45.27935        54.34714         2.65372
C         44.13408        54.96997         3.31849
C         45.39917        57.18715         3.06411
C         44.18994        56.49861         3.51782
C         45.40661        58.61933         3.03057
C         44.20264        59.34284         3.23370
C         45.47288        61.46794         3.08902
C         44.24793        60.75409         3.27742
C         45.48574        62.89860         3.02840
C         44.29116        63.64453         3.29050
C         45.38697        65.72997         2.69612
C         44.17405        65.05942         2.97855
C         45.39134        67.11458         2.29743
C         44.15521        67.73498         1.91442
C         45.41784        69.72174         1.18622
C         44.17690        69.03379         1.33025
C         45.45814        71.01168         0.56222
C         44.26684        71.56993         0.00259
C         45.53724        73.53448        -0.75579
C         44.32517        72.81817        -0.71385
C         44.43008        35.28291        -5.37657
C         45.79064        37.30630        -5.11699
C         44.56101        36.67737        -5.12037
C         45.96081        38.65935        -4.63595
C         44.75794        39.38911        -4.22134
C         46.27056        41.32037        -3.53679
C         44.90584        40.81502        -3.85073
C         46.42072        42.49121        -2.64185
C         45.34211        43.07638        -2.03437
C         46.80228        44.99605        -1.26545
C         45.57281        44.16078        -0.99163
C         46.85900        46.36079        -0.98734
C         45.73555        47.06556        -0.42823
C         46.96504        49.20350        -0.39761
C         45.79047        48.43878        -0.13405
C         47.12194        50.52265         0.09199
C         46.03234        51.15423         0.78333
C         47.50431        53.03310         1.41699
C         46.21738        52.42373         1.40490
C         47.73753        54.21527         2.33314
C         46.49382        55.02560         2.57706
C         47.80283        57.14282         2.50653
C         46.57148        56.44957         2.76839
C         47.84883        58.55914         2.63336
C         46.64727        59.30409         2.88216
C         47.90454        61.44626         2.80870
C         46.68423        60.74020         2.91390
C         47.92706        62.86242         2.76237
C         46.69557        63.59183         2.81621
C         47.86581        65.73218         2.68334
C         46.66868        65.03345         2.74559
C         47.84777        67.22678         2.83233
C         46.60211        67.83584         2.23203
C         47.83892        69.92184         1.67473
C         46.62922        69.14714         1.69094
C         47.84586        71.20389         1.13377
C         46.67696        71.73439         0.51490
C         47.89929        73.75377        -0.21552
C         46.71309        73.03526        -0.14033
C         47.21823        39.17611        -4.43198
C         48.70156        41.18223        -3.86998
C         47.46123        40.37808        -3.55669
C         48.88060        42.40514        -3.27637
C         47.81045        42.93667        -2.38064
C         49.33897        44.98900        -1.80123
C         48.00663        44.26038        -1.69116
C         49.19218        46.49617        -1.84376
C         48.05213        47.11388        -1.35585
C         49.31882        49.35257        -1.39238
C         48.00678        48.57985        -1.22174
C         49.48092        50.62412        -0.67463
C         48.38414        51.21770        -0.00675
C         49.89573        53.05027         0.72078
C         48.57843        52.46044         0.69771
C         50.18631        54.20635         1.67735
C         48.95607        55.02187         1.97636
C         50.24489        57.13638         2.00360
C         49.00138        56.40722         2.14786
C         50.26853        58.53194         2.25067
C         49.09316        59.24774         2.52442
C         50.38397        61.44187         2.42407
C         49.19217        60.69087         2.96957
C         50.37542        62.87169         2.42776
C         49.16377        63.56926         2.67493
C         50.37693        65.75018         2.41166
C         49.17344        65.03882         2.96673
C         50.31752        67.18758         2.28042
C         49.12750        67.90109         2.40164
C         50.35754        70.05641         1.87723
C         49.08416        69.41083         2.38832
C         50.35135        71.43495         1.55561
C         49.02327        72.13473         1.36948
C         50.20266        74.21761         0.64917
C         49.18978        73.15552         0.23347
C         50.04100        43.22216        -3.50251
C         51.39444        45.23513        -3.18578
C         50.23912        44.46429        -2.91109
C         51.54138        46.55037        -2.69599
C         50.39922        47.23024        -2.10940
C         51.75639        49.27309        -1.82220
C         50.50908        48.58301        -1.76112
C         51.85693        50.58408        -1.33530
C         50.76807        51.22124        -0.66070
C         52.37299        52.90926         0.35649
C         50.95730        52.44793         0.06424
C         52.47001        54.38206         0.69516
C         51.38915        55.02801         1.28173
C         52.68281        57.10090         1.54382
C         51.46114        56.43631         1.62946
C         52.81500        58.50896         1.96135
C         51.55856        59.26414         2.30330
C         52.78089        61.43426         1.89463
C         51.56870        60.74370         2.17900
C         52.80540        62.86958         1.95352
C         51.59801        63.58851         2.20824
C         52.80741        65.76123         2.02990
C         51.56962        65.03814         2.19977
C         52.78006        67.16633         2.01609
C         51.55561        67.90267         2.02328
C         52.79779        70.00452         1.33554
C         51.54820        69.30516         1.83120
C         52.78730        71.48216         1.65144
C         51.55083        72.20484         1.47685
C         52.63828        74.38637         0.76702
C         51.53553        73.59577         1.03875
C         52.75207        47.26271        -2.85066
C         54.14500        49.25512        -2.47316
C         52.90011        48.58603        -2.39836
C         54.29197        50.58398        -2.04951
C         53.07414        51.39546        -1.66974
C         54.57016        53.16512        -0.82851
C         53.38217        52.49557        -0.68788
C         54.77527        54.46185        -0.19471
C         53.71802        55.04928         0.52323
C         55.08737        57.14805         0.73345
C         53.95226        56.32613         1.27678
C         55.28362        58.52666         1.31764
C         53.98969        59.29483         1.53891
C         55.22043        61.42587         1.32024
C         53.97647        60.68230         1.56059
C         55.25736        62.86582         1.52372
C         54.04562        63.57906         1.79031
C         55.26638        65.71117         1.77252
C         54.05938        65.02751         1.88785
C         55.38116        67.14979         2.04001
C         54.02301        67.94256         2.14529
C         55.28137        70.03053         1.78950
C         54.06520        69.34861         1.81582
C         55.27983        71.47190         1.71069
C         53.99690        72.08525         1.93893
C         55.18427        74.30943         0.59544
C         53.97521        74.09452         1.20671
C         55.51810        51.25136        -2.10787
C         56.86979        53.25581        -1.71677
C         55.66337        52.57553        -1.60444
C         57.04535        54.57004        -1.18395
C         55.97562        55.18324        -0.44407
C         57.33603        57.26873        -0.30815
C         56.10273        56.55196        -0.00315
C         57.48180        58.62235         0.05688
C         56.20920        59.34615         0.42125
C         57.67627        61.39946         0.94009
C         56.36185        60.74452         0.95342
C         57.68925        62.86748         0.97147
C         56.48453        63.54079         1.31914
C         57.56402        65.73257         0.73196
C         56.58161        65.00310         1.63295
C         57.57851        67.23036         0.82817
C         56.52936        67.91540         1.59429
C         57.70041        70.08912         1.30990
C         56.53537        69.32480         1.64319
C         57.67757        71.49226         1.23802
C         56.43259        72.21585         1.42132
C         57.60171        74.30774         0.87574
C         56.41485        73.63619         1.02399
C         58.24829        55.25783        -1.39106
C         59.61903        57.30773        -1.19952
C         58.41637        56.59801        -0.95106
C         59.77647        58.62678        -0.78639
C         58.70435        59.28846        -0.13763
C         60.00932        61.47471        -0.13241
C         58.89616        60.66464         0.38665
C         59.98445        62.86462         0.01490
C         58.86985        63.54144         0.58910
C         60.15076        65.75080         0.49584
C         58.82484        65.01704         0.41179
C         60.09543        67.24201         0.29632
C         58.85292        67.97499         0.57284
C         59.92992        70.11974         0.11500
C         59.02446        69.38324         1.10886
C         60.03718        71.58140         0.46848
C         58.89704        72.21910         0.96599
C         60.07607        74.40869         0.66332
C         58.91455        73.69370         1.27955
C         61.10528        59.31095        -1.01171
C         62.19939        61.51829        -1.23298
C         61.09570        60.81791        -0.84461
C         62.36994        62.95807        -0.82830
C         61.01699        63.66996        -0.76643
C         62.34148        65.81646        -0.69726
C         61.21954        65.09252        -0.31705
C         62.40565        67.22362        -0.46344
C         61.25761        67.94517        -0.01455
C         62.40820        70.13047        -0.26031
C         61.26485        69.41564        -0.02582
C         62.41124        71.59427        -0.27479
C         61.21399        72.28864         0.11904
C         62.33902        74.43939        -0.28603
C         61.20098        73.73734         0.18256
C         63.34439        63.76011        -1.64421
C         64.54414        65.88970        -1.86045
C         63.43629        65.14443        -1.43640
C         64.81687        67.24457        -1.26564
C         63.50222        68.02767        -1.09416
C         64.76262        70.16747        -1.16345
C         63.72385        69.38160        -0.41145
C         64.90984        71.60905        -0.75890
C         63.55966        72.31113        -0.63247
C         64.57771        74.50812        -1.22697
C         63.50939        73.76054        -0.71148
C         65.74170        68.09498        -2.08922
C         66.67161        70.27669        -2.72530
C         65.71423        69.50053        -1.97926
C         66.74543        71.66535        -2.62318
C         65.93728        72.37762        -1.60390
C         66.49815        74.52490        -2.88061
C         65.77393        73.87743        -1.78444
C         67.56823        72.42191        -3.48822
C         67.42572        73.82097        -3.61467
O         57.83430        67.87243        -0.47370
O         36.84075        66.20157        -1.13838
O         31.42946        63.97277         1.88091
O         40.29909        71.02336         1.37169
O         54.01431        73.38933         2.43426
O         41.15753        61.11215         2.18394
O         52.42988        58.76745         3.38519
O         45.69940        41.57707        -4.85792
O         48.28872        49.34217        -2.44151
O         31.92698        59.19390         4.40730
O         37.56020        57.06694         5.98334
O         44.45334        55.56996         4.62908
O         42.28845        63.54582         4.59422
O         66.72333        73.27998        -0.76834
O         38.71753        68.68051         2.15085
O         58.66636        60.75475         1.83765
O         41.99745        50.33233        -0.29609
O         48.17352        42.97107        -0.94590
O         54.80974        67.57358         3.31306
O         57.82455        65.30537        -0.63688
O         54.42871        55.91362         2.62276
H         54.85461        56.70649         3.03072
O         34.48524        63.64664        -0.80645
H         35.40099        63.38215        -1.03646
O         42.86107        37.87387        -6.25087
H         42.04349        38.40591        -6.14634
O         28.94489        68.34129        -1.79689
H         29.34351        68.42743        -0.90574
O         64.22971        69.15959         0.94386
H         64.67429        70.00171         1.21861
O         50.06224        44.73174        -0.56121
H         49.87307        43.79540        -0.32157
O         34.01543        48.34904         3.27706
H         33.85102        48.80074         2.42436
O         27.10934        64.16834        -0.22410
H         26.24574        63.82367         0.08454
O         39.62165        41.35072         0.20713
H         39.92363        41.82745         1.01000
O         59.03883        73.83800         2.74747
H         59.86514        73.38208         3.01471
O         35.26099        70.72035        -0.07877
H         35.48609        71.65947         0.09372
O         50.36458        75.14073        -0.43039
H         50.47495        74.60163        -1.24329
O         49.42160        60.62136         4.43231
H         50.25706        60.12303         4.56981
O         32.71699        70.79671        -1.06518
H         33.39119        70.76383        -0.34022
O         31.15819        56.87727         5.44776
H         31.16438        57.86414         5.38969
O         48.95636        69.87078         3.78137
H         48.43143        69.17344         4.25765
O         59.27636        70.05435        -1.17925
H         59.89372        70.40997        -1.85135
O         40.95673        49.97413         3.69914
H         40.40295        49.39965         4.26826
O         55.88046        58.33899         2.63284
H         56.03408        59.22497         3.02681
O         44.61369        45.97641         1.41620
H         45.26622        45.24035         1.48831
O         33.64922        56.42805         2.72890
H         32.89806        56.28793         2.11288
O         62.06806        58.75995        -0.08736
H         61.76091        58.96050         0.82119
O         38.56198        42.42017        -3.13191
H         39.35763        42.96964        -3.34664
O         52.69170        52.11429        -2.90959
H         53.50106        52.55467        -3.24825
O         31.90675        52.19462         5.07103
H         31.18661        52.53665         5.63790
O         41.14203        43.63323        -3.23280
H         41.80235        43.38974        -3.93394
O         60.50766        63.73491        -2.13301
H         59.65976        64.22994        -2.11321
O         34.48809        54.95344         6.76177
H         34.13823        55.77404         7.18979
O         47.58161        39.87523        -2.18604
H         48.42285        39.37730        -2.11905
O         52.79090        69.86275        -0.13020
H         52.03738        70.39396        -0.46711
O         35.18529        59.40175         5.91239
H         35.91831        59.07710         6.48455
O         45.82535        43.48711         0.29954
H         46.68493        43.00563         0.18131
O         41.98144        54.78752         5.46244
H         42.91831        55.06796         5.61099
O         29.30250        63.05622        -2.94536
H         30.13953        63.41952        -3.30361
O         60.52073        65.57246         1.92008
H         61.47149        65.79817         2.01175
O         43.27488        42.42918        -4.56696
H         44.09838        42.60135        -5.08609
O         59.72176        69.32700         2.37394
H         59.13666        68.90705         3.03844
O         65.45753        66.99481         0.02109
H         65.20165        67.73562         0.63121
O         48.03326        53.59441         3.67333
H         47.90192        54.29304         4.35112
O         33.67574        57.26112         6.28551
H         33.93625        58.21763         6.30075
O         42.54507        58.60595         1.72243
H         42.11778        59.46810         1.50128
O         36.20329        61.67112         4.87788
H         35.61603        61.08689         5.42063
O         30.15591        66.71346        -4.84028
H         29.79955        66.68612        -5.75301
O         50.60520        53.54017         2.93016
H         49.76749        53.28853         3.40532
O         47.77527        67.47262         4.30155
H         48.39590        66.80818         4.70331
O         48.71940        72.86638         2.58504
H         48.67109        72.20440         3.31108
O         65.43676        71.57827         0.62158
H         66.06406        72.34352         0.68077
O         43.24694        47.41993        -1.67780
H         42.59247        48.13125        -1.84594
O         42.24895        44.46205         1.32691
H         43.07754        44.91850         1.62746
O         33.26375        65.73858         1.93053
H         32.60386        65.27025         2.49831
O         40.22346        51.86454         0.65880
H         40.53062        51.43152        -0.17433
O         52.74253        52.18948         1.57966
H         52.14906        52.53399         2.29447
O         57.22674        65.11969         2.95479
H         56.62670        64.71987         3.61971
O         49.76754        72.47039        -0.92692
H         49.05087        71.95805        -1.35801
O         63.03978        68.35132        -2.44111
H         62.85987        67.50617        -2.90589
O         36.21457        60.28060         1.47859
H         35.59937        60.37255         0.72113
O         49.32991        65.16459         4.47397
H         48.87568        64.38925         4.87208
O         55.47128        59.47370        -0.83983
H         56.01648        60.00125        -1.46024
O         36.44353        68.45925        -2.71282
H         36.66166        67.49897        -2.63919
O         62.87824        62.95083         0.54660
H         63.75530        62.51347         0.54221
H         25.11351        71.09100        -8.94740
H         27.26451        71.64062        -7.86625
H         29.43642        72.16933        -6.80794
H         31.63277        72.66264        -5.77959
H         33.86007        73.09940        -4.80819
H         36.16324        73.44533        -3.98745
H         38.52689        73.71906        -3.27948
H         40.85867        74.00406        -2.55945
H         43.24063        74.23867        -1.95477
H         45.57857        74.49765        -1.28452
H         47.92555        74.71834        -0.74465
H         49.80063        74.78683         1.52545
H         52.45969        75.29732         0.17102
H         55.25047        74.99541        -0.26245
H         57.59751        75.33922         0.49106
H         60.08518        75.50871         0.70346
H         62.32711        75.53912        -0.29757
H         64.45684        75.59520        -1.34501
H         66.28914        75.58100        -3.10304
H         23.85522        66.00109        -6.09798
H         22.95483        67.51717        -7.82212
H         23.14702        69.58725        -9.18877
H         25.57800        63.08413        -2.51920
H         24.75610        64.48837        -4.36906
H         27.91576        59.46540         0.00232
H         26.71217        61.29439        -1.12537
H         30.02152        56.01229         2.79967
H         29.02136        57.69981         1.31640
H         33.26665        52.89800         6.49092
H         31.04178        54.23857         4.23630
H         35.40574        48.29382         4.78443
H         33.33021        50.33954         4.64846
H         36.16765        44.51325         1.13841
H         35.29561        46.39983         2.50377
H         38.03541        40.87490        -1.86069
H         37.11553        42.58691        -0.12910
H         40.17927        36.77877        -3.46717
H         39.07042        38.88076        -2.81123
H         43.16777        33.53576        -5.32977
H         41.21986        34.70097        -4.32780
H         45.31777        34.71264        -5.68833
H         46.69590        36.72256        -5.34779
H         48.09288        38.56840        -4.71583
H         49.47087        40.77424        -4.54340
H         50.79483        42.85074        -4.21429
H         52.19201        44.80372        -3.81024
H         53.61512        46.75541        -3.30759
H         55.02383        48.71131        -2.85227
H         56.40246        50.73549        -2.51163
H         57.70744        52.78911        -2.25614
H         59.06784        54.76366        -1.93304
H         60.44638        56.79720        -1.71367
H         61.47904        59.05446        -2.03691
H         63.04662        60.98615        -1.69414
H         64.12934        63.24557        -2.22156
H         65.34924        65.38182        -2.41536
H         66.54659        67.62283        -2.67334
H         67.33062        69.75498        -3.43513
H         68.23858        71.88777        -4.17682
H         68.00882        74.34004        -4.38903
