         344
 CSIRO Nanostructure Databank - Neutral Graphene Oxide Data Set
C          2.05165         2.59246         3.30066
C          1.85730         3.87989         2.77401
C          3.21735         1.88968         3.04607
C          2.83534         4.51387         1.98398
C          1.49429         6.60702         1.66329
C          1.39197         7.91152         1.21648
C          2.68060         5.84771         1.52046
C          2.47885         8.55021         0.51782
C          1.18029        10.64816         0.02652
C          1.15177        12.02519        -0.25375
C          2.37798         9.93641         0.03422
C          2.32020        12.75391        -0.49478
C          1.19754        14.95953        -0.30490
C          1.22658        16.37943        -0.21155
C          2.30663        14.20487        -0.64153
C          2.38375        17.09612        -0.42212
C          2.46663        18.52272        -0.18830
C          4.22836         2.43317         2.20124
C          4.05088         3.76939         1.62695
C          5.38484         1.71242         1.93366
C          4.97552         4.26712         0.74069
C          3.91831         6.52641         0.99960
C          3.66044         7.85734         0.35555
C          4.78872         5.62078         0.09468
C          4.74477         8.41595        -0.52285
C          3.58778        10.62961        -0.31841
C          3.57361        12.04855        -0.54192
C          4.80367         9.91538        -0.43768
C          4.79522        12.72548        -0.76333
C          3.52550        14.90134        -1.11329
C          3.57291        16.40798        -0.95534
C          4.84716        14.14715        -1.27687
C          4.87975        17.08432        -0.81592
C          3.59556        19.22315        -0.42773
C          4.89094        18.59731        -0.88904
C          6.36780         2.17791         1.00448
C          6.07290         3.40599         0.16291
C          7.52912         1.49169         0.80041
C          7.35443         4.17104        -0.14941
C          6.10121         6.33723        -0.16579
C          6.07124         7.71753        -0.36718
C          7.32652         5.61904        -0.31045
C          7.27503         8.44270        -0.55201
C          6.02169        10.59857        -0.56544
C          6.01484        12.02525        -0.68803
C          7.26777         9.87317        -0.60434
C          7.26412        12.73861        -0.66928
C          6.06894        14.90938        -0.76530
C          6.06102        16.35199        -0.67864
C          7.26376        14.19470        -0.61306
C          7.31448        17.05155        -0.43568
C          6.05043        19.22551        -0.10159
C          7.34668        18.46273        -0.25211
C          8.50010         1.94913        -0.25735
C          8.52153         3.46544        -0.32872
C          9.85842         1.35085        -0.04804
C          9.75867         4.13120        -0.68240
C          8.49662         6.30898        -0.67900
C          8.50422         7.73229        -0.73456
C          9.68036         5.53665        -1.21973
C          9.70840         8.46004        -0.95300
C          8.48671        10.57870        -0.59701
C          8.45178        12.01070        -0.53590
C          9.73772         9.85815        -0.74382
C          9.68305        12.71676        -0.17820
C          8.51121        14.89207        -0.42091
C          8.52984        16.32281        -0.35643
C          9.72135        14.17917        -0.25468
C          9.76451        17.00943        -0.15227
C          8.55013        19.13317        -0.08514
C          9.78947        18.43459        -0.05020
C         11.02125         2.06004        -0.24352
C         10.95563         3.46072        -0.66455
C         12.29528         1.43908        -0.02390
C         12.20113         4.14022        -1.09785
C         11.00120         6.28756        -1.18031
C         10.91987         7.76211        -1.52096
C         12.18064         5.62329        -1.25600
C         12.21556         8.49614        -1.29805
C         10.98903        10.54744        -0.74306
C         11.01791        11.94005        -0.27501
C         12.21078         9.85938        -1.04967
C         12.22320        12.74908        -0.35176
C         10.95608        14.85250        -0.10083
C         10.98406        16.27865        -0.04396
C         12.20003        14.12913        -0.10567
C         12.20996        16.95909         0.17888
C         11.02902        19.10366         0.12276
C         12.23210        18.39319         0.24880
C         13.50673         2.09131        -0.24631
C         13.51505         3.44377        -0.85885
C         14.74381         1.48191         0.02922
C         14.77718         4.21873        -0.82516
C         13.47595         6.25692        -1.77210
C         13.45190         7.79963        -1.73859
C         14.70519         5.72858        -0.96227
C         14.75795         8.55551        -1.70768
C         13.47287        10.65261        -1.16594
C         13.46020        12.10168        -0.80599
C         14.78870         9.94485        -1.17942
C         14.76148        12.84354        -0.55504
C         13.42857        14.84698         0.12899
C         13.41903        16.20943         0.34871
C         14.62900        13.99319         0.46171
C         14.57034        16.90124         1.04238
C         13.50229        19.05560         0.36978
C         14.68045        18.36400         0.62830
C         15.97153         2.14995        -0.19946
C         15.96546         3.56639        -0.57694
C         17.18227         1.48260        -0.00627
C         17.25847         4.23092        -0.73016
C         16.02844         6.32012        -1.44219
C         16.05950         7.78797        -1.72709
C         17.29105         5.63734        -1.06738
C         17.34205         8.59994        -1.58149
C         15.94551        10.55033        -0.80051
C         15.93149        11.91084        -0.12682
C         17.19803         9.72083        -0.53863
C         17.25140        12.70100        -0.32852
C         15.95530        14.73200         0.53320
C         15.90340        16.13947         1.00094
C         17.15289        14.10773         0.27334
C         17.18921        16.91123         0.95052
C         15.93202        19.03239         0.60780
C         17.16835        18.38262         0.74186
C         18.44267         2.10666        -0.26483
C         18.43986         3.50140        -0.65223
C         19.62968         1.40027        -0.10727
C         19.69759         4.15810        -1.19349
C         18.49027         6.34856        -1.09002
C         18.55313         7.75887        -1.22926
C         19.76606         5.61485        -0.72976
C         19.75258         8.46905        -0.99549
C         18.49852        10.52484        -0.44483
C         18.45531        11.90728         0.19399
C         19.68532         9.90950        -0.71550
C         19.72266        12.71893         0.02073
C         18.42151        14.82348         0.41546
C         18.43053        16.18226         0.63904
C         19.68722        14.10105         0.25497
C         19.68906        16.93339         0.97496
C         18.39227        19.06155         0.57738
C         19.64503        18.40578         0.61596
C         20.94381         1.99318        -0.37951
C         21.00298         3.41468        -0.90276
C         22.15058         1.43462         0.21806
C         22.24129         4.19787        -0.65391
C         21.01936         6.32606        -1.27741
C         20.99864         7.79334        -0.90319
C         22.25304         5.58911        -0.79244
C         22.21162         8.47940        -0.67003
C         20.97335        10.68754        -0.85291
C         20.95499        12.05608        -0.21547
C         22.22466         9.89816        -0.53335
C         22.16835        12.73383        -0.06390
C         20.91671        14.84372         0.28588
C         20.93031        16.24088         0.49815
C         22.16512        14.14959         0.17593
C         22.12725        16.97134         0.43616
C         20.85006        19.09144         0.46855
C         22.11388        18.41570         0.47398
C         23.37783         2.10086         0.13705
C         23.43243         3.49662        -0.27801
C         24.57419         1.46088         0.55573
C         24.65871         4.18751        -0.22715
C         23.45703         6.32010        -0.58700
C         23.45565         7.74868        -0.57166
C         24.68301         5.61230        -0.40748
C         24.67658         8.44589        -0.40574
C         23.43077        10.58647        -0.35253
C         23.43254        12.01982        -0.15840
C         24.68182         9.87441        -0.31344
C         24.63123        12.68568         0.05106
C         23.37565        14.86268         0.27626
C         23.37600        16.27628         0.32920
C         24.63905        14.10362         0.55166
C         24.58870        17.02232         0.32012
C         23.33277        19.11050         0.43754
C         24.57417        18.42642         0.37532
C         25.82228         2.11888         0.52217
C         25.87974         3.49932         0.11647
C         27.02613         1.45366         0.86516
C         27.11464         4.16663         0.08070
C         25.90650         6.32097        -0.35705
C         25.91774         7.72829        -0.34560
C         27.19233         5.55360        -0.49937
C         27.16127         8.44758        -0.24456
C         25.90456        10.57173        -0.20937
C         25.89059        12.00068        -0.03919
C         27.15692         9.85857        -0.19188
C         27.09132        12.72258         0.03762
C         25.91086        14.84823         0.24987
C         25.89876        16.33706         0.04411
C         27.09724        14.15691         0.19638
C         27.06477        17.04955         0.69543
C         25.84050        19.15857         0.42414
C         27.03416        18.52869         0.59042
C         28.25854         2.12132         0.82985
C         28.30732         3.50345         0.44655
C         29.48748         1.44920         1.15251
C         29.56313         4.20309         0.45211
C         28.41549         6.32666        -0.07983
C         28.40914         7.73613        -0.13319
C         29.60945         5.62265         0.20845
C         29.64349         8.46076        -0.03959
C         28.39752        10.57171        -0.18195
C         28.35285        12.03363        -0.29165
C         29.63647         9.89758        -0.13925
C         29.67271        12.80915        -0.27839
C         28.39534        14.78784         0.67943
C         28.36112        16.30915         0.82093
C         29.66565        14.23761         0.09285
C         29.62212        17.07596         0.65357
C         28.30473        19.26213         0.95850
C         29.58033        18.48659         0.67928
C         30.68294         2.11422         1.11834
C         30.74564         3.51045         0.79114
C         31.98067         4.22322         0.83475
C         30.84729         6.32736         0.31315
C         30.86415         7.75106         0.12392
C         32.02847         5.57899         0.60576
C         32.08608         8.49867         0.10979
C         30.88775        10.62793        -0.11618
C         30.91987        12.04504        -0.12603
C         32.09558         9.86234        -0.01850
C         32.11062        12.82042         0.01283
C         30.85365        14.93191         0.20139
C         30.84079        16.39619         0.39446
C         32.08706        14.19522         0.07559
C         32.01204        17.15739         0.22587
C         30.76656        19.21254         0.50182
C         31.97484        18.54958         0.28728
O         28.95476        12.54428        -1.54757
O         16.09054         6.82625        -2.81991
O         16.64569        16.42150         2.25443
O          3.29353        15.77641        -2.27705
O         10.31006        12.14314         1.00782
O         12.88425         3.44603        -2.21273
O         27.54282        16.64145         2.01608
O         13.99995         8.42741        -2.95120
O         21.17987         2.32302        -1.85402
O         13.35675        11.67790        -2.23285
O          5.08426        14.00328        -2.71139
H          4.63821        14.77272        -3.14000
O         14.15361        16.90894         2.44357
H         14.97617        17.05518         2.96857
O         17.55047        12.84710        -1.72704
H         16.78852        13.31638        -2.14688
O         18.30564        11.70878         1.62789
H         19.13392        11.30805         1.96533
O         28.45854        14.25812         2.05604
H         27.97649        14.91206         2.61838
O          9.39018         5.39864        -2.65191
H          9.61933         6.26448        -3.07489
O          5.09678        18.97020        -2.28691
H          4.39960        18.52819        -2.81656
O         10.71447         7.79941        -2.99481
H         11.58508         7.61050        -3.41482
O         28.34811        20.55106         0.34263
H         28.33779        20.42824        -0.62849
O         21.08011        10.96603        -2.29593
H         20.86128        10.13660        -2.77276
O          7.98743         1.45802        -1.53742
H          7.09546         1.86937        -1.66037
O         21.02900         6.31594        -2.72651
H         20.56174         5.49593        -3.03148
O         19.76014        16.88605         2.44797
H         18.84548        16.98801         2.79161
O         27.35751         5.34787        -1.95807
H         27.38175         6.23521        -2.37600
O         19.53084         4.14155        -2.63970
H         19.85884         3.25935        -2.93860
O         14.34528        13.49976         1.80276
H         14.10982        14.27889         2.35311
O         26.16127        16.53250        -1.39443
H         25.41810        16.13078        -1.89261
O         16.98165         9.08965         0.75142
H         16.70484         9.81911         1.36205
O         13.57335         5.87005        -3.14437
H         13.45306         4.88836        -3.18811
O         14.48666         6.24650         0.38678
H         15.22866         5.95318         0.95726
O         15.79216        11.53207         1.25971
H         15.88365        12.32844         1.83130
O         24.66440        13.97252         2.03557
H         25.49280        13.49888         2.26713
O          4.14179         5.39674        -1.18606
H          4.16751         6.25608        -1.68452
O          6.19223        20.58675        -0.49881
H          6.11069        20.59916        -1.47797
O         17.58838         9.23463        -2.85451
H         17.40681         8.56693        -3.55133
O         19.87280         5.57443         0.71546
H         19.81731         6.49493         1.04870
O          4.77073         6.78219         2.17332
H          4.24610         7.31407         2.80839
O          4.32237         8.08999        -1.91573
H          3.52778         8.63277        -2.11241
O         15.06784        13.51231        -1.80408
H         14.64220        12.97308        -2.51688
O          5.56141         2.91832        -1.12770
H          5.06190         3.67010        -1.53311
H          1.27205         2.14939         3.93613
H          0.93103         4.41407         3.02676
H          3.36671         0.88829         3.47498
H          0.61045         6.14491         2.12654
H          0.44919         8.45467         1.36482
H          0.23353        10.14310         0.26242
H          0.17771        12.53252        -0.24485
H          0.27016        14.45751         0.00337
H          0.32250        16.90154         0.13390
H          1.55835        19.03743         0.16147
H          5.54910         0.74434         2.43150
H          3.60670        20.31449        -0.28695
H          7.72677         0.56017         1.35387
H          5.78287        19.21996         0.99196
H          9.91453         0.28530         0.22328
H          8.53638        20.22546         0.04313
H         12.31015         0.40518         0.35289
H         11.03992        20.20233         0.17909
H         14.76099         0.45184         0.41520
H         13.54286        20.14440         0.20835
H         17.16917         0.42686         0.30254
H         15.93372        20.11362         0.39669
H         19.59434         0.36247         0.25600
H         18.36837        20.14638         0.38804
H         22.09714         0.44511         0.69626
H         20.83633        20.18417         0.33121
H         24.52888         0.41050         0.88041
H         23.32860        20.21067         0.46134
H         26.99112         0.39203         1.15231
H         25.80507        20.25890         0.42172
H         29.45063         0.38437         1.42525
H         28.26687        19.44534         2.06988
H         31.61707         1.58951         1.36709
H         32.90201         3.67493         1.07978
H         32.99713         6.09246         0.67325
H         33.04597         7.97149         0.19266
H         33.06360        10.38095        -0.03338
H         33.08613        12.31553         0.04489
H         33.04384        14.72902         0.15012
H         32.97085        16.66209         0.02434
H         30.72956        20.31051         0.53127
H         32.90047        19.12618         0.15244
