         720
 CSIRO Nanostructure Databank - Neutral Graphene Oxide Data Set
C         22.83103        27.57103         0.71228
C         22.89171        28.92874         0.70360
C         22.82656        31.76212        -0.40079
C         22.83092        33.01517        -0.87757
C         22.84529        35.92947        -0.06019
C         22.80437        37.27211        -0.18704
C         22.73264        40.21178        -0.33275
C         22.81614        41.52292         0.03496
C         22.95609        44.24544         1.30568
C         23.02497        45.54253         1.65559
C         25.20153        24.67994         0.75142
C         24.05628        25.37207         0.72098
C         25.21269        27.45104        -0.10451
C         23.87976        26.71766         0.04695
C         25.25154        28.93390         0.05319
C         24.06596        29.64408         0.28158
C         25.31663        31.75992        -0.28204
C         24.04564        31.15988         0.26498
C         25.33876        33.10350        -0.68362
C         24.06819        33.86448        -1.00906
C         25.28645        35.99415        -0.60301
C         24.12692        35.15400        -0.13210
C         25.25104        37.36543        -0.62857
C         23.98476        38.07695        -0.46956
C         25.12273        40.26752        -1.05820
C         23.92902        39.45433        -0.59945
C         25.24748        41.58383        -0.28460
C         24.09664        42.16854         0.22339
C         25.50397        44.11997         1.03649
C         24.16627        43.43360         0.99401
C         25.54899        45.60412         1.19709
C         24.27775        46.33109         1.53692
C         25.64614        48.22458         2.31673
C         24.43386        47.62789         2.21641
C         27.88808        23.16282         0.87066
C         27.67168        24.63186         1.18580
C         26.54117        25.16493         0.21952
C         27.74867        27.45227         0.16576
C         26.50552        26.68149        -0.01097
C         27.74314        28.86861         0.01456
C         26.50554        29.60461        -0.02000
C         27.75522        31.74955        -0.23993
C         26.53378        31.04407        -0.15006
C         27.76494        33.13129        -0.48409
C         26.55368        33.81005        -0.74499
C         27.74567        35.97969        -0.36155
C         26.55570        35.30084        -1.05337
C         27.85363        37.52681        -0.57178
C         26.47406        38.15205        -0.81897
C         27.64554        40.27402        -1.31488
C         26.41404        39.49367        -1.01228
C         27.73322        41.65027        -0.81606
C         26.53480        42.25619        -0.22432
C         28.01077        44.12699         0.54033
C         26.65132        43.49748         0.36737
C         28.02078        45.58657         0.96493
C         26.85747        46.23990         1.44166
C         28.12968        48.25849         2.00492
C         26.89225        47.59566         1.89569
C         28.23696        49.62483         2.41192
C         30.35221        23.16791         1.18455
C         29.05172        22.49844         0.93271
C         30.34716        24.67146         1.14330
C         29.00506        25.49421         1.20726
C         30.15596        27.46299         0.17162
C         28.95809        26.75723         0.36731
C         30.18228        28.84850        -0.09269
C         28.97990        29.56738        -0.03580
C         30.19741        31.64493        -0.75250
C         29.05430        31.06651         0.08978
C         30.29513        33.14093        -0.59589
C         29.03284        33.85994        -0.58455
C         30.25970        35.90326        -1.05224
C         29.01511        35.22522        -0.66720
C         30.20291        37.28697        -1.60140
C         28.84655        38.00293        -1.77086
C         30.18641        40.29323        -1.51685
C         28.92035        39.54837        -1.72963
C         30.15582        41.65029        -1.24457
C         28.92578        42.34422        -0.92559
C         30.23911        44.53480        -0.50906
C         28.89773        43.85458        -0.66849
C         30.34503        45.75748         0.14034
C         29.23934        46.27242         0.91711
C         30.59915        48.34618         1.45409
C         29.41264        47.47882         1.80231
C         30.75612        49.62509         2.26746
C         29.42553        50.27183         2.54358
C         32.90510        20.46376         0.21623
C         31.71597        21.11149         0.27227
C         32.88225        23.20552         0.74820
C         31.66722        22.36832         1.12002
C         32.85768        24.54084         0.41423
C         31.62422        25.36914         0.70101
C         32.42746        27.44345        -0.67935
C         31.45775        26.77068         0.20460
C         32.65613        28.77959        -0.59965
C         31.45799        29.55453        -0.29583
C         32.79203        31.57895        -0.44421
C         31.48277        30.89701        -0.52475
C         32.77090        33.06306        -0.29481
C         31.50082        33.80543        -0.52237
C         32.72447        35.94940        -0.79617
C         31.55151        35.24861        -0.69759
C         32.68904        37.45892        -0.83681
C         31.48786        38.06747        -1.56798
C         32.75454        40.25487        -1.25185
C         31.47873        39.56020        -1.58161
C         32.71497        41.74258        -1.44075
C         31.42972        42.39467        -0.86950
C         32.69587        44.63699        -1.15035
C         31.35067        43.90596        -1.30267
C         32.68728        46.01083        -0.58324
C         31.55756        46.56392         0.02451
C         32.78855        48.76022         0.37133
C         31.61645        47.87913         0.66679
C         32.96308        50.04337         1.04674
C         31.70263        50.65529         1.60856
C         33.14919        52.51879         2.42824
C         31.98654        51.83602         2.49200
C         35.42076        18.87960         1.00848
C         35.26652        20.32453         1.23670
C         34.10263        21.08257         0.76335
C         35.38436        23.20620         0.92851
C         34.13897        22.48372         0.84088
C         35.37606        24.58453         0.48899
C         34.14142        25.15487         0.07372
C         35.34259        27.18809        -0.73809
C         34.25296        26.32215        -0.71381
C         35.20200        28.60830        -1.25563
C         33.84984        29.42634        -1.29747
C         35.23305        31.59066        -0.94764
C         34.03822        30.87434        -0.82665
C         35.28391        33.03516        -0.76852
C         34.07280        33.78484        -0.40584
C         35.27732        35.92530        -1.05024
C         34.03977        35.28689        -0.60803
C         35.26251        37.36397        -1.35629
C         33.96755        38.11484        -1.34017
C         35.24335        40.30520        -1.19358
C         33.96601        39.60363        -1.22152
C         35.27584        41.68434        -1.15181
C         33.96823        42.39526        -0.85347
C         35.24308        44.47907        -0.61016
C         34.00300        43.86829        -1.15557
C         35.03308        45.73791        -0.04790
C         33.96457        46.61807        -0.33340
C         35.36340        48.89626        -0.29831
C         34.05675        48.07677        -0.19280
C         35.38252        50.21833         0.45343
C         34.18901        50.76870         1.01838
C         35.46534        52.83158         1.53060
C         34.28226        52.06422         1.64409
C         35.53645        54.26657         2.02080
C         37.83483        18.89027         1.51779
C         36.60800        18.22629         1.20795
C         37.84136        20.35954         1.65883
C         36.55809        21.12312         1.53141
C         37.86351        23.22489         0.95877
C         36.60920        22.54643         1.15849
C         37.86806        24.73792         0.83078
C         36.57607        25.30926         0.28841
C         37.80998        27.30021        -0.50499
C         36.56905        26.62842        -0.24787
C         37.77455        28.65461        -1.08010
C         36.47756        29.40477        -1.24863
C         37.69603        31.60226        -1.10131
C         36.50093        30.89733        -1.13033
C         37.72428        33.05306        -1.07230
C         36.47646        33.75800        -0.93168
C         37.72696        35.92651        -1.15088
C         36.47391        35.21182        -1.04045
C         37.72677        37.39038        -1.22684
C         36.53704        38.08816        -1.25431
C         37.76727        40.29249        -1.34401
C         36.52530        39.55298        -0.89959
C         37.74662        41.68009        -1.34813
C         36.52439        42.42463        -1.06907
C         37.83207        44.53026        -0.54093
C         36.50722        43.80294        -0.70491
C         37.96695        46.03669        -0.40018
C         36.88564        46.84103         0.10062
C         37.83056        48.96525        -0.59445
C         36.68316        48.16797        -0.13862
C         37.91171        50.31872         0.10410
C         36.57475        50.96893         0.41426
C         37.82060        53.21380         0.69759
C         36.61236        52.29576         0.90787
C         38.01028        54.13081         1.89404
C         36.91959        54.61171         2.50899
C         40.40995        16.18139         2.14184
C         39.17766        16.81206         1.87009
C         40.31540        18.92234         1.27948
C         39.07269        18.18667         1.59151
C         40.35934        20.37507         1.21900
C         39.12700        21.13600         1.46295
C         40.33757        23.19556         0.72067
C         39.08434        22.55598         1.04800
C         40.31915        24.57573         0.24679
C         39.10809        25.29800         0.17023
C         40.27971        27.33700        -0.63890
C         39.05411        26.64911        -0.32756
C         40.32646        28.72619        -0.84533
C         39.04909        29.42967        -1.10521
C         40.24460        31.59422        -1.33990
C         39.00520        30.90559        -0.80013
C         40.22496        33.09936        -1.37456
C         38.93194        33.78578        -1.09734
C         40.16651        35.98896        -0.64257
C         38.92284        35.20957        -1.03677
C         40.23063        37.32055        -1.39466
C         38.97707        38.12789        -1.38639
C         40.24874        40.25191        -1.79234
C         38.98030        39.51372        -1.53956
C         40.28493        41.72431        -1.62550
C         38.95612        42.46013        -1.82733
C         40.24219        44.61095        -1.55283
C         39.02695        43.82878        -1.15761
C         40.31887        45.98963        -1.04662
C         39.13650        46.72671        -0.69441
C         40.34202        49.09197        -0.66528
C         39.13506        48.23277        -0.76566
C         40.31070        50.55412        -0.84810
C         38.98733        51.25011        -0.43393
C         40.31974        53.24860         0.24104
C         39.10582        52.54875         0.21550
C         40.32986        54.44518         1.07354
C         39.43605        54.47001         2.29944
C         40.60293        56.63158         2.92204
C         39.57792        55.75628         3.08441
C         42.87620        16.28369         2.54336
C         41.62995        16.85369         2.09152
C         42.86047        19.04391         1.67277
C         41.67956        18.19583         1.50813
C         42.81543        20.36127         1.27612
C         41.56121        21.04925         1.03916
C         42.80254        23.09934         0.39462
C         41.54476        22.47810         0.77342
C         42.77093        24.47770        -0.08657
C         41.54367        25.16950        -0.17202
C         42.77789        27.27536        -0.87795
C         41.48041        26.47492        -0.92759
C         42.80407        28.75562        -1.03087
C         41.52333        29.48121        -1.02141
C         42.73842        31.64709        -1.22293
C         41.54097        30.89734        -1.16616
C         42.73209        33.08033        -1.17921
C         41.50510        33.78272        -1.14740
C         42.81132        35.92634        -0.73074
C         41.47118        35.17093        -0.70254
C         42.73295        37.44600        -0.71385
C         41.55017        38.01755        -1.49304
C         42.77849        40.25539        -1.26792
C         41.56967        39.50852        -1.70466
C         42.75153        41.68855        -1.24280
C         41.49910        42.38125        -1.53391
C         42.82999        44.57272        -1.39174
C         41.55518        43.86275        -1.66696
C         42.82820        46.00204        -1.13532
C         41.55973        46.46176        -0.68530
C         42.81889        49.10728        -0.71140
C         41.55891        48.55733        -0.33241
C         42.80966        50.54317        -0.66807
C         41.57857        51.27614        -0.60018
C         42.87780        53.28307        -0.05572
C         41.58006        52.64369        -0.23378
C         43.02661        54.67777         0.10002
C         41.24592        55.46225         0.89879
C         42.84581        57.08690         1.85493
C         41.58069        56.45100         1.86965
C         44.03013        16.99614         2.57592
C         45.38636        18.86791         1.54338
C         44.10680        18.48527         2.33682
C         45.25925        20.25042         0.86558
C         44.10410        21.15295         1.28546
C         45.23270        23.00010        -0.19419
C         44.00293        22.42382         0.47916
C         45.25558        24.50419        -0.11711
C         44.00735        25.15781        -0.25507
C         45.21216        27.42503        -0.13657
C         43.96269        26.63243        -0.25716
C         45.19630        28.88336        -0.45372
C         44.05651        29.52397        -0.79800
C         45.29751        31.70428        -1.07458
C         44.05383        30.91208        -1.40457
C         45.27198        33.12806        -1.22982
C         44.00718        33.82043        -1.20783
C         45.20703        35.99370        -1.67856
C         43.99924        35.22315        -1.19998
C         45.22510        37.44767        -1.22925
C         44.02266        38.11892        -1.10536
C         45.19057        40.23115        -0.62278
C         43.96610        39.55068        -1.05426
C         45.11182        41.73110        -0.37313
C         43.91875        42.42710        -0.90379
C         45.14309        44.66101        -0.53422
C         43.96393        43.84944        -1.05187
C         45.22201        46.04449        -1.16102
C         43.98644        46.83244        -1.10668
C         45.20059        49.07260        -0.98207
C         43.97771        48.29983        -0.97196
C         45.23377        50.40633        -0.46544
C         44.04710        51.18117        -0.40145
C         45.36866        53.15788         0.30126
C         44.10294        52.54232        -0.02756
C         45.40140        54.54341         0.65691
C         44.16457        55.30819         0.65270
C         44.01946        56.58612         1.27639
C         47.76027        19.45114         1.98784
C         46.62902        18.88029         2.41973
C         47.82497        20.11988         0.62221
C         46.52361        20.89420         0.38577
C         47.73344        23.04702         0.09255
C         46.54561        22.35998         0.19322
C         47.72396        24.50362        -0.12780
C         46.46535        25.20602        -0.11462
C         47.73008        27.43710        -0.40370
C         46.44961        26.65346        -0.54349
C         47.71049        28.79558        -0.52224
C         46.47485        29.62796        -0.17679
C         47.72191        31.78751        -0.65916
C         46.46410        31.04048        -0.73248
C         47.78708        33.18961        -1.06472
C         46.51578        33.88077        -1.24100
C         47.75204        35.99887        -1.65184
C         46.49877        35.26076        -1.41764
C         47.74111        37.50429        -1.55399
C         46.46011        38.20924        -1.24717
C         47.71358        40.39569        -1.09036
C         46.47150        39.54223        -0.87748
C         47.64856        41.73549        -0.40857
C         46.40314        42.49240        -0.04858
C         47.63754        44.51436        -0.78747
C         46.44701        43.90573        -0.60831
C         47.76914        45.84965        -1.47805
C         46.42221        46.48203        -1.63707
C         47.65087        48.93915        -0.76442
C         46.46117        48.58375        -1.41913
C         47.51913        50.03214         0.10518
C         46.45802        50.96774        -0.01450
C         47.84772        53.03326         0.50252
C         46.57850        52.37373         0.31680
C         47.82566        54.40618         0.84546
C         46.64853        55.12701         0.97247
C         50.33333        20.30679         0.50667
C         49.06426        20.98967         0.47459
C         50.29893        23.13113         0.08827
C         49.00501        22.34038         0.21195
C         50.08809        24.33668        -0.83205
C         48.90557        25.17049        -0.40772
C         50.25254        27.30263        -0.94046
C         48.98972        26.64397        -0.45458
C         50.15414        28.72789        -1.37074
C         48.90402        29.50743        -1.04182
C         50.20894        31.67072        -1.36158
C         49.02903        30.97968        -0.84508
C         50.29547        33.08590        -1.23244
C         49.03812        33.80932        -1.18445
C         50.29329        36.00364        -1.09295
C         49.07704        35.25769        -1.51454
C         50.22116        37.36822        -0.84728
C         49.04020        38.19812        -1.18796
C         50.11284        40.26296        -0.33857
C         48.99193        39.62966        -0.76717
C         50.15392        41.70027         0.00779
C         48.87340        42.44480        -0.04688
C         50.15803        44.51744        -0.76686
C         48.88727        43.96330        -0.14383
C         50.16369        46.00090        -1.00085
C         48.88694        46.71578        -0.83804
C         50.29116        48.88394        -0.58279
C         48.96713        48.22399        -1.08801
C         50.40824        50.33000        -0.35542
C         49.37493        51.03683         0.28114
C         50.29838        53.15697        -0.23861
C         49.15867        52.42613         0.21420
C         51.50445        20.92067         0.13358
C         52.60646        22.90009        -0.91557
C         51.51177        22.28266        -0.30176
C         52.42399        24.23644        -1.44185
C         51.38305        25.07419        -1.13209
C         52.78723        27.32857        -1.48411
C         51.44637        26.52266        -1.42398
C         52.69469        28.80777        -1.17831
C         51.40419        29.47248        -1.55342
C         53.12436        31.89157        -1.35344
C         51.27386        30.82134        -1.81336
C         52.85386        33.20500        -0.90963
C         51.55437        33.84618        -1.09377
C         52.75261        35.95819        -0.51242
C         51.50002        35.23527        -0.86218
C         52.68399        37.41847        -0.17906
C         51.33755        38.05077        -0.16418
C         52.68539        40.24537        -0.10575
C         51.33409        39.52711         0.03355
C         52.63253        41.73190         0.16639
C         51.45550        42.41216        -0.02134
C         52.67307        44.62459        -0.23781
C         51.45728        43.82101        -0.47316
C         52.68451        45.97636        -0.47246
C         51.48616        46.72226        -0.95254
C         52.73131        48.91479        -1.18421
C         51.46825        48.19356        -0.74480
C         52.81795        50.38251        -0.84361
C         51.59989        51.08552        -0.62163
C         51.48854        52.51325        -0.54118
C         55.13531        23.04775        -0.94731
C         53.95460        22.34854        -0.96668
C         55.31401        24.49544        -0.86795
C         54.28956        25.33242        -1.42657
C         55.19597        27.40889        -0.58587
C         54.08497        26.67669        -1.16181
C         55.21394        28.78298        -0.56340
C         53.95915        29.55759        -0.79068
C         55.16870        31.67399        -0.11067
C         54.08768        31.04427        -0.80188
C         55.14412        33.09252         0.04854
C         53.96621        33.83768        -0.26620
C         55.10485        35.89817         0.41584
C         53.95296        35.23237        -0.05630
C         55.03152        37.31012         0.85413
C         53.76293        38.06595         0.64892
C         55.09664        40.29614         0.79411
C         53.80508        39.56380         0.67102
C         55.06478        41.76040         0.69870
C         53.88377        42.42787         0.36765
C         55.07189        44.67800         0.70551
C         53.80472        43.91199         0.42148
C         55.11359        46.14326         0.36743
C         53.87743        46.80683        -0.16958
C         55.33600        48.83419        -0.85244
C         54.01851        48.11912        -0.89244
C         55.28166        50.30742        -0.95456
C         54.09813        51.00503        -0.90323
C         57.53135        24.42813         0.26052
C         56.39563        25.12900        -0.24717
C         57.73281        27.25911        -0.13126
C         56.33311        26.62548         0.06386
C         57.71865        28.78592         0.09940
C         56.43416        29.52813        -0.15605
C         57.46646        31.62367         0.73411
C         56.31614        30.94278         0.27954
C         57.51569        33.03008         0.69745
C         56.33513        33.77324         0.42811
C         57.56432        35.90402         0.84154
C         56.32537        35.19949         0.58329
C         57.56242        37.38969         0.75536
C         56.28869        38.11047         1.06207
C         57.51539        40.32242         1.46284
C         56.26329        39.60201         1.00186
C         57.52052        41.80134         1.12140
C         56.31830        42.48876         0.89558
C         57.53927        44.64560         0.87300
C         56.34335        43.92463         0.79073
C         57.55650        46.08458         0.65278
C         56.43454        46.76536         0.20286
C         57.58434        48.93032         0.48407
C         56.64030        48.14562        -0.39788
C         58.62273        25.09063         0.77596
C         59.67003        27.19044         1.48425
C         58.71462        26.52006         0.76212
C         59.64651        28.61701         1.62998
C         58.71998        29.40425         1.00844
C         59.83866        31.63560         1.57564
C         58.55404        30.85156         1.44948
C         59.93600        32.95012         1.34167
C         58.85411        33.73834         0.64501
C         59.98628        35.97311         1.18155
C         58.77602        35.22877         0.95004
C         60.03423        37.33705         1.22440
C         58.86320        38.15392         0.89291
C         59.97581        40.36046         1.14926
C         58.82414        39.61960         1.15054
C         59.96029        41.77805         1.26102
C         58.77010        42.50971         1.20005
C         59.94335        44.72784         1.29328
C         58.78360        43.96502         1.11531
C         59.92395        46.13799         1.24904
C         58.76893        46.82985         0.90988
C         58.65720        48.28033         0.98990
O         41.58364        47.36217         0.37599
O         57.53877        29.47821        -1.18281
O         42.27610        35.35235         0.51554
O         48.49681        50.26752         1.06125
O         48.51160        35.54443        -2.83257
O         53.36769        38.81311         1.83410
O         55.59693        37.50474         2.19896
O         38.60669        20.85731         2.82227
O         50.02784        27.15709         0.49209
O         38.32537        48.73328        -1.92246
O         38.81291        43.78998         0.28226
O         30.43700        23.96601         2.41741
O         33.50449        44.45162        -2.37698
O         54.21963        46.94644         1.24944
O         48.56691        38.09639        -2.59970
O         52.04574        26.95823        -2.67907
O         35.94783        46.18795         0.89685
O         43.03429        27.85410        -2.21086
O         35.88687        28.88667        -2.51473
O         28.05729        40.16485        -2.73016
O         45.57219        20.23636        -0.55300
O         34.23688        34.69591         0.73965
O         46.45232        47.63496        -2.44531
O         32.82462        32.22306         0.91168
O         33.08014        48.73502        -1.06697
O         50.92312        46.33510        -2.25479
O         53.41990        24.69631        -2.31516
O         25.03417        43.35631         2.20563
O         31.98413        26.51219         1.56195
O         29.05142        26.18839         2.43734
O         41.01875        39.87432        -2.99575
O         41.06415        18.29185         0.19167
O         52.95605        29.11402         0.24150
O         54.87092        48.08964        -2.07954
O         52.36712        31.42872        -2.42458
O         39.39168        51.13822        -1.81522
O         25.90137        27.01316        -1.33375
O         38.52167        28.90485        -2.34862
O         44.90948        40.79300         0.73615
O         54.12546        44.39543         1.78089
O         53.11978        37.02171        -1.49728
O         51.02944        38.63263         1.15218
O         41.03522        37.25506        -2.61500
O         53.05398        40.17611        -1.46040
O         28.41808        38.06979         0.56973
O         34.47476        37.65648        -2.61986
O         31.71224        38.74867        -2.82270
O         48.59444        31.42671         0.47427
O         50.81825        43.80639        -1.82778
O         40.80856        44.35466        -2.86729
O         41.96730        55.49730        -0.31087
O         24.79367        46.32027         0.15135
O         35.63738        20.77145         2.59576
O         49.41535        41.96964         1.27546
O         44.45639        27.11325         1.06581
O         33.16840        26.63643        -1.53452
O         30.28914        36.16868        -2.54120
O         58.25893        37.85831        -0.43739
O         49.17605        29.05055        -2.41772
O         40.12681        32.28039        -2.60874
O         30.95059        43.96208        -2.68804
H         31.74784        43.70242        -3.21347
O         29.81026        31.41530        -2.14052
H         30.55918        31.66388        -2.72184
O         44.22612        19.09512         3.65166
H         43.43780        18.84750         4.17788
O         27.49350        35.81802         1.05901
H         27.90149        36.64585         1.44995
O         59.23572        33.69894        -0.77565
H         58.62312        34.28428        -1.27015
O         45.06584        22.70032        -1.62473
H         45.04525        21.71471        -1.69379
O         39.12804        30.95249         0.66035
H         38.88919        31.85313         0.96618
O         38.75981        42.64019        -3.24708
H         39.54068        43.13648        -3.59376
O         41.27698        26.04150        -2.30968
H         41.68086        26.73750        -2.88246
O         37.43640        54.09950        -0.41713
H         37.40546        53.55881        -1.23599
O         39.96465        36.37316         0.74445
H         40.01878        35.57008         1.30358
O         23.35837        26.46050        -1.29019
H         24.14438        26.38296        -1.87975
O         38.44055        49.98232         1.43825
H         37.72899        49.54988         1.95703
O         27.12236        24.68368         2.51060
H         27.76954        25.24307         3.03148
O         46.53048        29.78568         1.27504
H         47.33984        30.31518         1.47396
O         28.66410        43.40497         1.64258
H         27.99981        43.26324         2.35146
O         29.37028        31.36406         1.47427
H         28.73818        30.88876         2.05267
O         57.40360        47.93992        -1.62984
H         56.76875        47.61636        -2.30864
O         35.44039        49.29570        -1.70392
H         34.51712        49.43646        -2.01919
O         36.58345        39.53122         0.58593
H         36.69675        40.45960         0.88656
O         28.27947        37.63948        -3.00451
H         28.60704        36.73961        -3.24150
O         57.43349        40.26367         2.94021
H         56.55874        40.62249         3.20432
O         35.18705        55.13977         0.92993
H         35.88417        55.02131         0.23926
O         33.47020        29.55470        -2.68985
H         34.30791        29.50138        -3.21336
O         46.28572        26.57789        -2.01062
H         46.89243        25.89081        -2.35955
O         44.89437        44.86009         0.88888
H         45.27658        44.08868         1.37855
O         33.93099        42.35593         0.59981
H         33.64308        41.46035         0.87859
O         58.04871        30.73754         2.82855
H         57.91864        31.64500         3.17733
O         23.99585        31.59587         1.66426
H         24.07590        32.58054         1.66489
O         31.88587        21.87911         2.47243
H         31.61643        22.61013         3.07704
O         47.72628        40.68019        -2.53216
H         48.05814        39.86032        -2.97991
O         45.54857        17.85922         0.53909
H         46.34440        18.10526         0.00299
O         48.86657        44.52354         1.19194
H         48.21239        44.00640         1.71567
O         47.91592        19.05645        -0.36352
H         47.75465        19.45369        -1.24575
O         45.09265        36.07042        -3.14539
H         45.98704        36.22869        -3.51856
O         32.52364        37.88667         0.54980
H         32.97319        37.24279         1.13827
O         48.23365        45.55772        -2.82452
H         48.33905        46.42551        -3.27803
O         37.94909        25.22848         2.22576
H         37.21108        24.81655         2.72515
O         28.30438        44.47466        -1.83286
H         28.95820        44.38458        -2.56553
O         29.72563        46.92186         3.15831
H         30.27208        46.11668         3.02570
O         31.47341        42.34388         0.57344
H         30.57648        42.55653         0.92288
O         49.69512        23.76450        -2.12642
H         49.82970        24.44184        -2.82279
O         58.15274        27.01393        -1.48503
H         58.02081        27.85482        -1.98469
O         44.16128        30.68203        -2.84842
H         43.52874        29.97225        -3.09516
O         31.34383        49.22296         3.53219
H         30.79845        48.47008         3.86613
O         30.95133        51.14063         0.44758
H         31.51653        51.78084        -0.03453
O         26.68423        35.46274        -2.48405
H         25.81682        35.19529        -2.87269
O         39.86679        53.38660         3.18534
H         40.76937        53.59794         3.50353
O         50.61530        23.65691         1.40683
H         50.69364        22.90075         2.02512
O         52.55221        48.91535        -2.64107
H         53.44320        48.73507        -3.03066
O         42.51597        37.88272         0.65336
H         42.07322        37.13603         1.12730
O         26.79349        24.55042        -1.06430
H         26.30724        25.07971        -1.73622
O         32.73997        41.95502        -2.87494
H         32.37509        41.16052        -3.32123
O         44.42389        21.57748         2.64339
H         43.65122        22.06097         3.00353
O         24.45542        34.68016         1.22086
H         25.30096        35.10699         1.49364
O         56.06798        26.71861         1.49437
H         55.15343        26.40949         1.66374
O         49.10594        48.36219        -2.53650
H         49.93240        47.87172        -2.78761
O         46.43877        42.67483         1.41532
H         46.12485        41.81959         1.80016
O         24.87134        40.62027        -2.45632
H         25.74014        40.71095        -2.90531
O         24.13077        34.30934        -2.39290
H         24.01207        33.52559        -2.96941
H         21.92929        27.06520         1.08897
H         22.04769        29.51422         1.09725
H         21.88611        31.18974        -0.38197
H         21.90464        33.43732        -1.29931
H         21.92349        35.37123         0.16291
H         21.83386        37.78040        -0.09417
H         21.74993        39.71925        -0.33652
H         21.89799        42.06839         0.29089
H         21.98402        43.73310         1.35329
H         22.11513        46.07771         1.96815
H         25.19447        23.67738         1.20555
H         23.14032        24.90944         1.12250
H         25.70058        49.20486         2.80960
H         23.54223        48.11100         2.64277
H         26.97456        22.58147         0.66876
H         27.31767        50.18487         2.63577
H         29.06064        21.41129         0.75983
H         29.41920        51.31230         2.89810
H         32.98390        19.47138        -0.25317
H         30.80223        20.65286        -0.13163
H         33.26089        53.42108         3.04520
H         31.18690        52.20465         3.15007
H         34.54757        18.30938         0.66166
H         34.80281        54.45515         2.83987
H         36.64093        17.14043         1.03767
H         37.00608        55.31008         3.35467
H         40.39448        15.14013         2.49611
H         38.25862        16.22974         2.02698
H         40.71642        57.48344         3.60974
H         38.87798        55.91254         3.91844
H         42.87902        15.22201         2.83479
H         42.96737        57.95817         2.51883
H         44.95829        16.50464         2.90305
H         44.94214        57.12800         1.53533
H         48.67304        19.42780         2.60280
H         46.59319        18.38253         3.40026
H         48.77804        54.92091         1.03452
H         46.70115        56.18580         1.25985
H         50.33345        19.23548         0.75141
H         50.25297        54.25263        -0.31467
H         52.42496        20.32346         0.06211
H         52.36107        53.12647        -0.80660
H         56.04954        22.44058        -0.85433
H         54.04102        21.25361        -0.88072
H         56.22986        50.86237        -0.99218
H         54.14766        52.10437        -0.87834
H         57.53362        23.32886         0.24257
H         57.48483        50.02128         0.57831
H         59.44333        24.51581         1.23171
H         60.40181        26.61909         2.07478
H         60.35807        29.06808         2.33613
H         60.69701        31.10902         2.02179
H         60.90005        33.44925         1.52269
H         60.91071        35.41451         1.38532
H         60.96091        37.83513         1.54418
H         60.94884        39.86717         1.00819
H         60.92702        42.29832         1.27935
H         60.89597        44.23356         1.52826
H         60.84481        46.69213         1.48173
H         59.44270        48.83068         1.52989
