         424
 CSIRO Nanostructure Databank - Neutral Graphene Oxide Data Set
C          1.16015         2.29321        -1.23414
C          1.14124         3.62121        -0.83742
C          2.38295         1.63134        -1.43007
C          2.34460         4.32776        -0.59225
C          1.14337         6.47199        -0.12716
C          1.16000         7.82798         0.13701
C          2.34402         5.73196        -0.22257
C          2.37212         8.50498         0.43172
C          1.19279        10.68536         0.75733
C          1.18245        12.08144         0.78207
C          2.38434         9.95605         0.63710
C          2.36563        12.82507         0.65228
C          1.14210        15.01467         0.51948
C          1.13529        16.38938         0.37513
C          2.35558        14.27255         0.54291
C          2.34652        17.11416         0.25449
C          2.36313        18.53738         0.09692
C          3.58492         2.29072        -1.18723
C          3.57933         3.63701        -0.73751
C          4.89251         1.60184        -1.49843
C          4.83161         4.33952        -0.52313
C          3.58116         6.41175         0.00548
C          3.57467         7.78137         0.41992
C          4.80996         5.70945        -0.22130
C          4.81070         8.42069         1.02522
C          3.62886        10.66051         0.62961
C          3.61699        12.11588         0.58407
C          4.85443         9.95194         0.78735
C          4.81636        12.83939         0.45745
C          3.58154        14.97783         0.42882
C          3.57932        16.40156         0.29357
C          4.83267        14.26422         0.42110
C          4.80720        17.11910         0.20256
C          3.54476        19.22439        -0.00473
C          4.80637        18.54091         0.05756
C          6.01401         2.11291        -0.59554
C          6.07394         3.62208        -0.59023
C          7.33071         1.46042        -0.88221
C          7.30937         4.28232        -0.40900
C          6.07762         6.51213        -0.33966
C          6.07597         7.69774         0.58601
C          7.34040         5.68782        -0.17946
C          7.28240         8.10074         1.06437
C          6.05771        10.70195         0.80607
C          6.08552        12.07677         0.17051
C          7.29193        10.18200         1.22408
C          7.35123        12.83038         0.49960
C          6.05759        14.98301         0.39544
C          6.05116        16.41924         0.30507
C          7.32988        14.28356         0.48463
C          7.24999        17.16094         0.29495
C          6.02525        19.24322        -0.02414
C          7.26547        18.57168         0.08636
C          8.54076         2.12000        -0.70862
C          8.55626         3.54629        -0.41468
C          9.77802         1.42411        -0.81790
C          9.77709         4.19783        -0.20283
C          8.56400         6.32556         0.10177
C          8.57506         7.67533         0.58181
C          9.80698         5.61839         0.05562
C          9.75693         8.45668         0.62080
C          8.55986        10.68965         0.83549
C          8.53153        12.12838         0.65549
C          9.75959         9.91247         0.75471
C          9.81694        12.81005         0.82617
C          8.51151        14.99970         0.55627
C          8.54631        16.49918         0.65229
C          9.80442        14.31966         0.71718
C          9.70006        17.12597        -0.10690
C          8.51282        19.28045        -0.02884
C          9.74679        18.61109        -0.13496
C         11.01382         2.07073        -0.61190
C         11.02392         3.47970        -0.28963
C         12.23912         1.36882        -0.67575
C         12.23939         4.14918        -0.09220
C         10.99637         6.32762         0.25655
C         11.00252         7.75475         0.37493
C         12.27283         5.55640         0.46409
C         12.23602         8.46174         0.23997
C         11.00972        10.61205         0.55007
C         11.04676        12.04080         0.53117
C         12.23019         9.90754         0.29347
C         12.22904        12.74545         0.29833
C         11.02095        14.97637         0.28302
C         10.99371        16.35914        -0.17029
C         12.21400        14.18863        -0.13768
C         12.25849        17.09715        -0.21153
C         10.98644        19.23352        -0.35082
C         12.23471        18.51741        -0.35884
C         13.47132         2.03622        -0.50138
C         13.46597         3.45645        -0.24990
C         14.70884         1.35141        -0.54411
C         14.70174         4.17153        -0.21485
C         13.50792         6.31695         0.04571
C         13.46961         7.76298         0.01773
C         14.67845         5.62051        -0.17506
C         14.69140         8.46969        -0.15420
C         13.42946        10.63289         0.10087
C         13.45394        12.04387         0.14266
C         14.66732         9.95070        -0.40037
C         14.69366        12.78409         0.08841
C         13.48922        14.94570         0.13779
C         13.47289        16.39220         0.03071
C         14.67247        14.21308         0.22154
C         14.68530        17.12357         0.03320
C         13.46926        19.20320        -0.43777
C         14.70128        18.51999        -0.27593
C         15.93566         2.03880        -0.40419
C         15.92657         3.47870        -0.30526
C         17.16937         1.34581        -0.37835
C         17.17867         4.19304        -0.23654
C         15.92872         6.34012        -0.60877
C         15.92408         7.80168        -0.25255
C         17.19526         5.61173        -0.25217
C         17.15548         8.50693        -0.16412
C         15.94958        10.66615        -0.05528
C         15.93826        12.08111         0.06364
C         17.16173         9.94428        -0.03760
C         17.18534        12.79825         0.10891
C         15.94417        14.91566         0.46470
C         15.94536        16.45422         0.35757
C         17.20955        14.21162         0.22823
C         17.21350        17.11604         0.04669
C         15.95212        19.19547        -0.36132
C         17.19249        18.51740        -0.25113
C         18.40257         2.02813        -0.23849
C         18.39553         3.46721        -0.16096
C         19.63467         1.33736        -0.20039
C         19.63287         4.17125        -0.06591
C         18.40057         6.32641        -0.09536
C         18.39100         7.78866        -0.05899
C         19.62260         5.60732         0.01051
C         19.58011         8.49514         0.18773
C         18.40918        10.64663         0.06459
C         18.42005        12.08103         0.06151
C         19.62504         9.92543         0.17051
C         19.64619        12.78986         0.02262
C         18.41933        14.93969         0.14595
C         18.42066        16.38355         0.05284
C         19.65484        14.22883         0.00173
C         19.65446        17.07501        -0.15510
C         18.43077        19.19213        -0.41808
C         19.64944        18.49702        -0.35313
C         20.87282         2.02630        -0.10755
C         20.84998         3.45535        -0.04017
C         22.11573         1.33065        -0.09650
C         22.14163         4.20174        -0.16503
C         20.85572         6.30116         0.25014
C         20.80414         7.74562         0.50625
C         22.07616         5.63504         0.30056
C         22.13509         8.51079         0.48256
C         20.87776        10.64485         0.19072
C         20.88579        12.06377         0.04008
C         22.12339         9.96345         0.23800
C         22.11861        12.75973        -0.04415
C         20.86465        14.93786        -0.16118
C         20.88256        16.35493        -0.21495
C         22.12530        14.19379        -0.49916
C         22.12813        17.05942        -0.37368
C         20.90001        19.16350        -0.55108
C         22.10168        18.47405        -0.55375
C         23.35676         2.01017         0.11203
C         23.34195         3.41460         0.26894
C         24.60740         1.32440         0.19374
C         24.57615         4.11559         0.61233
C         23.30972         6.36549         0.36060
C         23.34548         7.74203         0.24686
C         24.56842         5.62648         0.61492
C         24.59569         8.43790        -0.22670
C         23.34643        10.65212         0.18623
C         23.34477        12.07966         0.08665
C         24.61588         9.92757         0.11186
C         24.57976        12.82716         0.16957
C         23.38125        14.95108        -0.14119
C         23.37120        16.34978        -0.25539
C         24.58453        14.21991         0.10133
C         24.62889        17.09652        -0.25122
C         23.37197        19.23259        -0.85659
C         24.63716        18.48820        -0.50677
C         25.84990         2.00764         0.31435
C         25.86844         3.43042         0.49093
C         27.08812         1.32367         0.28023
C         27.07564         4.15843         0.57080
C         25.85135         6.34716         0.50971
C         25.82997         7.70439         0.26249
C         27.08820         5.60809         0.65325
C         27.03595         8.49027         0.47309
C         25.79750        10.60750         0.12441
C         25.85954        12.07894         0.48163
C         27.08373         9.85133        -0.17503
C         27.04554        12.76590        -0.17776
C         25.86482        14.98104         0.39798
C         25.85301        16.42599        -0.04948
C         27.07257        14.25859        -0.17185
C         27.08470        17.12381        -0.11910
C         25.84862        19.18812        -0.47581
C         27.06848        18.52937        -0.27855
C         28.31542         2.02209         0.36259
C         28.31885         3.45891         0.48430
C         29.55073         1.33504         0.29528
C         29.55483         4.16946         0.47614
C         28.31809         6.29058         0.66315
C         28.34269         7.75542         0.73987
C         29.56343         5.60313         0.54034
C         29.59754         8.48284         0.50966
C         28.35817        10.58657         0.14958
C         28.34237        12.01872        -0.22889
C         29.53745         9.92668         0.40414
C         29.61822        12.79770        -0.18786
C         28.37097        14.97759        -0.12643
C         28.36106        16.41027        -0.07838
C         29.57389        14.27175        -0.09689
C         29.57943        17.12013        -0.10071
C         28.32680        19.35823        -0.17487
C         29.61089        18.56017        -0.13701
C         30.78246         2.02528         0.30715
C         30.78746         3.46555         0.38129
C         32.01266         1.33576         0.23006
C         32.01939         4.17841         0.35222
C         30.79243         6.32546         0.46271
C         30.79935         7.77308         0.42876
C         32.02466         5.61258         0.37834
C         32.05675         8.47784         0.27381
C         30.80969        10.68076         0.72402
C         30.84834        12.11100         0.23931
C         32.07275         9.93110         0.33498
C         32.02498        12.81775         0.25584
C         30.82967        14.95844        -0.03284
C         30.83605        16.41194        -0.06382
C         32.02572        14.23244         0.01690
C         32.04166        17.10826        -0.00135
C         30.81166        19.23232        -0.12957
C         32.07103        18.53901        -0.06050
C         33.24481         2.02771         0.22083
C         33.25248         3.46906         0.27409
C         34.47027         1.33053         0.15215
C         34.48770         4.17471         0.25759
C         33.26621         6.31762         0.29872
C         33.25076         7.75167         0.21235
C         34.50087         5.60645         0.26396
C         34.52573         8.44981        -0.01151
C         33.24328        10.64439         0.27974
C         33.29149        12.10771         0.68752
C         34.51159         9.96513         0.00004
C         34.56270        12.81504         0.26663
C         33.30912        14.95747        -0.28674
C         33.32018        16.36210         0.30179
C         34.57447        14.20513         0.06888
C         34.57496        17.08587        -0.11876
C         33.29318        19.21979        -0.10912
C         34.55462        18.53144        -0.22652
C         35.70430         2.01587         0.16818
C         35.71832         3.44991         0.23055
C         36.93543         1.31199         0.11221
C         36.96395         4.13858         0.30094
C         35.76863         6.29740         0.26100
C         35.80338         7.73625         0.22815
C         36.98124         5.58493         0.32301
C         36.99677         8.43411         0.32406
C         35.76860        10.68419         0.24491
C         35.79257        12.07026         0.28649
C         37.02035         9.92681         0.59912
C         37.07647        12.76842         0.21492
C         35.77357        14.93654         0.01927
C         35.76293        16.35895        -0.18993
C         37.09763        14.27793         0.32996
C         37.02726        17.04723        -0.44189
C         35.73198        19.21969        -0.46152
C         36.99345        18.50623        -0.84463
C         38.15579         1.99095         0.18603
C         38.16644         3.40818         0.32101
C         39.41167         1.27780         0.06732
C         39.46322         4.10672         0.61134
C         38.24110         6.28854         0.29744
C         38.25770         7.73295         0.30614
C         39.45410         5.57842         0.28212
C         39.48732         8.41959         0.23740
C         38.24682        10.57257        -0.08054
C         38.25343        12.08504         0.03782
C         39.54479         9.92511         0.41739
C         39.52226        12.77794        -0.17172
C         38.19589        14.86536        -0.55458
C         38.20944        16.37419        -0.48281
C         39.52724        14.18284        -0.33238
C         39.47493        17.08992        -0.91241
C         38.25952        19.20897        -0.43400
C         39.44600        18.54728        -0.47643
C         40.60410         1.94674        -0.02471
C         40.67103         3.36952         0.09460
C         41.84964         4.08187        -0.10002
C         40.69917         6.25211         0.11125
C         40.70842         7.70601         0.04492
C         41.87783         5.48644        -0.03394
C         41.88037         8.42903        -0.25801
C         40.76110        10.60142        -0.17127
C         40.74576        12.04501        -0.26525
C         41.88800         9.82795        -0.41303
C         41.94504        12.77864        -0.45480
C         40.73585        14.89753        -0.47192
C         40.73818        16.35972        -0.49828
C         41.94642        14.16014        -0.51485
C         41.85512        17.07182        -0.15262
C         40.69179        19.21309        -0.15940
C         41.84906        18.50553        -0.04232
O          7.28939         9.07625         2.08414
O         21.45700         8.16305         1.74531
O         26.75680        13.50887        -1.39521
O         10.06100        16.52561        -1.36239
O         34.53976         9.21632        -1.27882
O         29.07912        12.25009        -1.48231
O         27.55766         8.38515         1.82660
O          9.93354        13.61013         2.04885
O         24.46015         4.89863         1.88547
O         15.94002        15.75543         1.65669
O         39.60385         4.05893         2.09575
H         40.48003         4.44703         2.30750
O          6.11591        11.88536        -1.28799
H          5.30774        11.38594        -1.53302
O         39.43746        17.05423        -2.37925
H         38.62689        17.56472        -2.64134
O         24.59111         8.35320        -1.68521
H         25.43621         8.76853        -1.99225
O         33.31231        12.12370         2.14893
H         32.46285        11.71365         2.45115
O         22.37539         4.32946        -1.64694
H         22.21248         3.44268        -2.03710
O         37.07439        10.05908         2.04733
H         38.01949        10.00350         2.33358
O         28.37745        20.33408        -1.22819
H         28.44657        19.85820        -2.08099
O         38.18541        10.25917        -1.49086
H         37.38615        10.68312        -1.86843
O         12.37961         5.39359         1.92896
H         13.20551         4.89427         2.10531
O         27.10287         9.60376        -1.62495
H         27.38229        10.43655        -2.06692
O         26.05038        15.00498         1.84368
H         25.26529        15.43512         2.24164
O         26.12680        12.14422         1.91293
H         25.38842        11.70238         2.38203
O         37.01366        18.47506        -2.33842
H         36.86931        19.39435        -2.64969
O         37.43367        14.61794         1.70443
H         36.74442        14.23173         2.28534
O          4.67126         8.24467         2.46831
H          5.50320         8.58643         2.87100
O         33.37515        16.21989         1.75358
H         33.38336        17.11892         2.14365
O         12.11137        14.10096        -1.62446
H         12.81860        13.49166        -1.92867
O          8.82889        16.82088         2.05946
H          8.18285        16.33624         2.61531
O         15.89045         6.32131        -2.09444
H         15.02238         6.69184        -2.36365
O         22.13616        14.11100        -1.98631
H         22.98519        13.69024        -2.24253
O          5.63194         1.69768         0.76169
H          6.31431         2.03546         1.37949
O         39.68008        10.17627         1.86244
H         40.50826         9.74200         2.15791
O         23.35633        20.52663        -0.23841
H         23.29667        20.40187         0.73060
O          6.09325         7.02831        -1.72537
H          6.11119         6.25126        -2.32399
O         37.84669        14.56506        -1.93895
H         38.42522        15.12906        -2.50324
O         14.57527        10.06836        -1.88635
H         15.39509         9.67159        -2.25345
O          5.25630         1.87077        -2.85962
H          4.48468         1.67400        -3.42885
O         30.83755        10.77660         2.19975
H         30.62603         9.88775         2.55950
O         33.33270        15.12896        -1.73483
H         33.33184        14.24181        -2.15106
H          0.21603         1.76015        -1.41271
H          0.17100         4.12018        -0.71436
H          2.39285         0.58573        -1.77234
H          0.17577         5.98441        -0.30451
H          0.20769         8.37436         0.13790
H          0.23056        10.16183         0.83242
H          0.21342        12.59039         0.86958
H          0.17982        14.49267         0.60766
H          0.17970        16.93314         0.35230
H          1.40437        19.07503         0.05795
H          4.77774         0.48873        -1.35427
H          3.54204        20.31759        -0.12537
H          7.33292         0.38051        -1.09603
H          6.01002        20.33428        -0.16655
H          9.76395         0.34892        -1.05033
H          8.48555        20.37735        -0.11495
H         12.23237         0.28703        -0.87444
H         11.02381        20.33073        -0.43177
H         14.71532         0.25984        -0.68017
H         13.47561        20.29239        -0.59020
H         17.16833         0.24830        -0.45736
H         15.95652        20.27607        -0.56798
H         19.63568         0.23895        -0.26369
H         18.43246        20.27359        -0.61822
H         22.11433         0.23456        -0.17887
H         20.90598        20.25129        -0.71329
H         24.61692         0.22906         0.09296
H         23.39461        19.42429        -1.96793
H         27.09959         0.22980         0.16634
H         25.84299        20.27719        -0.62700
H         29.55116         0.23801         0.21404
H         28.25817        19.94814         0.78302
H         32.01268         0.23699         0.17755
H         30.81417        20.33124        -0.18269
H         34.46348         0.23161         0.10184
H         33.29122        20.31767        -0.18447
H         36.92431         0.21561         0.02145
H         35.71524        20.31915        -0.53024
H         39.38220         0.18280        -0.02961
H         38.22526        20.27751        -0.16746
H         41.53452         1.39150        -0.21890
H         42.77584         3.54060        -0.34514
H         42.84355         5.98883        -0.17788
H         42.81753         7.89141        -0.45333
H         42.81914        10.29791        -0.76013
H         42.90414        12.24784        -0.52713
H         42.90280        14.68519        -0.64435
H         42.78385        16.54823         0.11651
H         40.67688        20.30050         0.00680
H         42.78907        19.01621         0.20970
