         404
 CSIRO Nanostructure Databank - Neutral Graphene Oxide Data Set
C          1.32278         3.20424         1.08117
C          0.17603         3.97792         0.84436
C          1.23453         6.16709         0.19789
C          0.11058         5.31406         0.41582
C          1.21105         7.61102         0.32090
C          0.00117         8.32335         0.46374
C          1.19730        10.44762         0.48165
C         -0.00295         9.70544         0.53873
C          1.14613        11.92794         0.59519
C         -0.07773        12.69195         0.29836
C          1.12512        14.83742         0.11501
C         -0.07589        14.05549         0.18972
C          1.15516        16.24989         0.03722
C         -0.05768        17.00050         0.09180
C          1.17114        19.10006         0.19944
C         -0.04702        18.37271         0.14538
C          1.14059        20.54716         0.48710
C         -0.05935        21.35378         0.23883
C          1.22499        23.45335         0.33875
C         -0.01278        22.70966         0.25281
C          1.22181        24.89623         0.34781
C          0.02081        25.64810         0.34436
C          1.26771        27.73335         0.49444
C          0.04890        27.02901         0.36159
C          1.24099        29.24568         0.40010
C          0.09857        29.92740         1.11051
C          1.31924        32.06137         1.05834
C          0.11972        31.26701         1.28494
C          1.26441        33.47480         0.97495
C          0.05949        34.18551         0.69939
C          1.25539        36.31852         0.43145
C          0.05365        35.54703         0.46797
C          1.24395        37.70984         0.13147
C          3.87814         3.27496         0.93733
C          2.58175         3.53910         0.51734
C          3.72971         6.22881         0.12570
C          2.48638         5.59022        -0.08656
C          3.69150         7.63635         0.26172
C          2.44669         8.33981         0.27670
C          3.68363        10.52761         0.21514
C          2.43235         9.77605         0.34276
C          3.68971        11.91666         0.20786
C          2.45524        12.68126         0.45689
C          3.65568        14.85026        -0.25345
C          2.38003        14.08723        -0.04262
C          3.63643        16.31688        -0.18341
C          2.40608        16.98756        -0.04219
C          3.65783        19.15142         0.01866
C          2.40192        18.42366         0.08121
C          3.69216        20.56094         0.10685
C          2.47841        21.30560         0.46892
C          3.68275        23.46515         0.12561
C          2.44706        22.76620         0.30103
C          3.69487        24.87565         0.20405
C          2.46194        25.59672         0.38922
C          3.77442        27.68910         0.84708
C          2.46443        27.01502         0.53015
C          3.72479        29.19531         0.68704
C          2.56079        29.90866         0.72782
C          3.78320        32.06095         0.87142
C          2.56525        31.36194         0.91204
C          3.84204        33.51081         1.08113
C          2.49202        34.26818         1.11287
C          3.70592        36.39590         0.59499
C          2.50464        35.68765         0.70880
C          3.68462        37.78752         0.25877
C          2.41890        38.42554         0.06931
C          6.26852         3.39858         0.49376
C          5.01387         4.03969         0.45749
C          6.18475         6.13665        -0.08918
C          4.96160         5.44866         0.13627
C          6.23625         7.61770         0.02381
C          4.95535         8.38623         0.32512
C          6.15600        10.51168        -0.14664
C          4.94337         9.83656         0.10385
C          6.20019        11.94394        -0.17784
C          4.96339        12.65766         0.16816
C          6.16565        14.85911        -0.42133
C          4.95125        14.16556         0.03660
C          6.11145        16.30282        -0.51007
C          4.88131        17.01284        -0.27132
C          6.10572        19.15631        -0.36622
C          4.88241        18.43692        -0.20898
C          6.10957        20.58295        -0.34547
C          4.89502        21.29690        -0.12649
C          6.11022        23.43811        -0.37731
C          4.90201        22.73127        -0.10641
C          6.12368        24.88969        -0.33592
C          4.93266        25.58965         0.02105
C          6.16588        27.68616         0.00712
C          4.96618        26.99898         0.19937
C          6.23514        29.13328         0.29525
C          5.01592        29.90410         0.69691
C          6.17608        32.08589         0.33565
C          5.00838        31.38270         0.58977
C          6.19412        33.53705         0.32711
C          5.03720        34.24863         0.68444
C          6.15282        36.42432         0.14310
C          5.04453        35.74565         0.90843
C          6.13958        37.83212        -0.02744
C          4.89102        38.50931         0.09707
C          8.72040         3.38359         0.09931
C          7.45969         4.05110         0.11097
C          8.61468         6.12614        -0.67256
C          7.39559         5.44041        -0.19976
C          8.58572         7.62614        -0.90996
C          7.37704         8.38527        -0.50177
C          8.52233        10.52659        -1.00218
C          7.35618         9.76550        -0.47950
C          8.59396        11.99501        -0.82469
C          7.37078        12.67843        -0.48635
C          8.55494        14.81271        -1.03339
C          7.33168        14.11922        -0.59752
C          8.54654        16.32830        -1.05904
C          7.30493        17.03596        -0.69906
C          8.56713        19.16375        -0.73082
C          7.32458        18.44748        -0.59616
C          8.56831        20.57605        -0.70682
C          7.33064        21.29714        -0.55251
C          8.54054        23.41888        -1.00091
C          7.30622        22.71031        -0.61294
C          8.55445        24.93148        -0.98602
C          7.32394        25.62186        -0.55295
C          8.61668        27.75660        -0.55462
C          7.36294        27.01977        -0.37988
C          8.64359        29.14968        -0.50998
C          7.36870        29.87639        -0.32079
C          8.67297        32.03968        -0.19290
C          7.35101        31.36501        -0.20930
C          8.65452        33.55349        -0.20647
C          7.36340        34.22509        -0.10267
C          8.61451        36.43975        -0.62921
C          7.26705        35.65584        -0.35077
C          8.60426        37.88365        -0.34316
C          7.36352        38.54059        -0.24034
C         11.16911         3.39524        -0.05662
C          9.93304         4.07228        -0.08979
C         11.08269         6.24410        -0.43588
C          9.92045         5.50297        -0.39169
C         11.07931         7.66800        -0.73094
C          9.87814         8.33325        -0.90393
C         11.10048        10.51752        -1.31569
C          9.81608         9.76536        -1.23501
C         11.10192        12.02696        -1.25935
C          9.80818        12.69806        -0.98112
C         11.06381        14.83845        -0.87040
C          9.84528        14.11470        -0.92224
C         11.04814        16.27911        -0.83839
C          9.83734        17.01934        -0.89961
C         11.04748        19.13942        -0.78682
C          9.80896        18.43363        -0.81977
C         11.04584        20.59242        -0.78689
C          9.81619        21.30174        -0.79150
C         11.04167        23.44365        -0.98148
C          9.83129        22.71712        -0.89360
C         11.07147        24.90458        -1.01538
C          9.85438        25.63179        -0.89481
C         11.08573        27.75609        -0.85935
C          9.85331        27.03588        -0.76651
C         11.09364        29.18305        -0.91523
C          9.84542        29.90856        -0.76391
C         11.01434        32.10071        -1.08046
C          9.83671        31.30833        -0.72033
C         11.08053        33.55686        -0.81096
C          9.87856        34.27579        -0.59712
C         11.10189        36.38894        -0.55092
C          9.87903        35.68522        -0.57959
C         11.08603        37.82117        -0.34782
C          9.85362        38.52669        -0.24385
C         13.62061         3.44836        -0.08468
C         12.40602         4.09617        -0.09343
C         13.57307         6.24861        -0.65751
C         12.37845         5.60753         0.01531
C         13.57925         7.71355        -0.77088
C         12.34862         8.40991        -0.81783
C         13.55596        10.55277        -1.12442
C         12.34569         9.81451        -0.99529
C         13.60247        12.01942        -0.99965
C         12.37542        12.73172        -0.95981
C         13.54440        14.86891        -0.55185
C         12.32345        14.14034        -0.77316
C         13.51927        16.28945        -0.48256
C         12.29123        16.98736        -0.67615
C         13.44103        19.18447        -0.32302
C         12.24634        18.41094        -0.71263
C         13.53928        20.54831        -0.95297
C         12.25355        21.32562        -0.85749
C         13.53543        23.44441        -1.23934
C         12.26466        22.72121        -0.98029
C         13.57779        24.91090        -1.12594
C         12.30804        25.60833        -1.04427
C         13.54421        27.75429        -1.00362
C         12.31415        27.03715        -0.97048
C         13.54585        29.14822        -0.97633
C         12.32443        29.86843        -1.01216
C         13.56258        32.09706        -0.97434
C         12.34171        31.32864        -1.23314
C         13.55321        33.47633        -0.88026
C         12.32035        34.23985        -0.86808
C         13.55113        36.39624        -0.57029
C         12.33729        35.67327        -0.67351
C         13.54422        37.78636        -0.22983
C         12.31255        38.48186        -0.16223
C         16.15534         3.44751        -0.17307
C         14.90023         4.21232         0.11659
C         16.14167         6.33544        -0.65648
C         14.88742         5.53824        -0.63807
C         16.10892         7.71775        -0.86775
C         14.80783         8.38168        -1.01079
C         16.43632        10.81867        -0.90185
C         14.69265         9.74837        -1.36361
C         16.09988        12.09298        -0.42600
C         14.82225        12.75419        -0.69087
C         16.08777        14.87252        -0.21458
C         14.76923        14.14276        -0.44035
C         15.99532        16.32298         0.21435
C         14.83253        17.06090        -0.42026
C         15.91435        19.24417         0.39204
C         14.65878        18.47012         0.11138
C         16.00339        20.68342        -0.05409
C         14.74899        21.34963        -0.53118
C         16.10783        23.42075        -0.93508
C         14.84598        22.69686        -1.15212
C         16.06302        24.84172        -0.91725
C         14.80410        25.56178        -1.06330
C         16.02505        27.76241        -0.61683
C         14.85960        27.05821        -1.28797
C         16.04298        29.12527        -0.56629
C         14.86428        29.88150        -1.17370
C         16.01184        32.02181        -0.22897
C         14.76597        31.30580        -0.62847
C         16.07517        33.49350        -0.37546
C         14.85611        34.19755        -0.84140
C         16.10370        36.43890        -0.43380
C         14.83958        35.71817        -0.79471
C         16.00271        37.80764         0.12097
C         14.75662        38.45952         0.09773
C         18.60364         3.45048        -0.19579
C         17.33452         4.14238        -0.27941
C         18.54578         6.27065        -0.10708
C         17.34997         5.60209        -0.36107
C         18.61212         7.73906        -0.21325
C         17.38604         8.50246        -0.70779
C         18.31239        10.51467         0.57853
C         17.37620         9.95067        -0.32468
C         18.16745        11.89834         0.93754
C         17.08284        12.69181         0.43073
C         18.05467        14.73445         1.38890
C         17.05317        14.08612         0.62764
C         18.13887        16.17747         1.42077
C         17.08372        16.96917         0.76433
C         18.40112        19.23454         0.52272
C         17.12981        18.49188         0.79652
C         18.44740        20.40334        -0.31519
C         17.29589        21.26795        -0.48713
C         18.53816        23.45756        -0.96363
C         17.32286        22.66795        -0.81594
C         18.50162        24.87122        -0.70348
C         17.25648        25.54851        -0.61609
C         18.49960        27.71932        -0.19808
C         17.19498        26.96232        -0.09494
C         18.49094        29.13429        -0.06709
C         17.25469        29.86590        -0.20837
C         18.47802        31.98394         0.14460
C         17.27741        31.26032        -0.15386
C         18.44976        33.40814         0.29156
C         17.25150        34.14781        -0.08423
C         18.43192        36.28041         0.63243
C         17.35294        35.62809        -0.13466
C         18.34739        37.67379         0.91664
C         17.14901        38.40837         0.65375
C         19.74945         4.12743         0.10143
C         20.83928         6.27201         0.74522
C         19.73408         5.55797         0.24824
C         20.74205         7.64023         1.02443
C         19.63542         8.40916         0.62645
C         20.34335        10.40435         1.94299
C         19.44350         9.76299         1.04774
C         20.17251        11.71630         2.32366
C         19.10347        12.50876         1.81103
C         19.90684        14.53494         2.99169
C         19.01014        13.91798         2.08609
C         19.97922        15.90718         3.05321
C         19.18318        16.71238         2.20182
C         20.85576        19.29242         0.73231
C         19.59415        18.81746         1.12191
C         20.91929        20.18100        -0.34366
C         19.73214        20.72999        -0.82971
C         20.95567        23.65250        -1.39883
C         19.77040        22.91913        -1.39139
C         20.93969        24.97619        -0.95574
C         19.73537        25.60426        -0.61528
C         20.92870        27.74889        -0.10970
C         19.71807        27.02927        -0.29135
C         20.92273        29.10463         0.14037
C         19.71242        29.83958         0.12979
C         20.85710        31.99617         0.68539
C         19.69708        31.27259         0.31807
C         20.80252        33.35800         0.91704
C         19.60667        34.09206         0.73256
C         20.61426        36.19189         1.68898
C         19.56153        35.53100         1.02290
C         20.54855        37.56499         1.94974
C         19.43388        38.30375         1.57540
O         18.48584         8.19125        -1.61731
O         19.81453        21.61585        -1.91632
O         16.29311        19.10853         1.81598
O          2.95462        14.24495        -1.39779
O          2.49884         4.31971        -0.66260
O         14.07278         5.55516        -1.84753
O          5.07865        13.57021         1.36110
O         15.09226        29.91601        -2.57142
O          8.91585        10.06487        -2.34343
O         14.98315        35.00888        -2.06262
O          8.42081        15.55188        -2.30221
O         19.54987        18.03604         2.27733
O         15.13697        21.48294         0.85854
O         13.65468        18.86236         1.09901
O         14.22392        22.90037        -2.45482
O         15.76218        10.33957        -2.03009
O         15.05652        31.49195         0.80397
O          3.24059        33.98690         2.34775
O         11.18236        11.31383        -2.54012
O          8.43775         6.68484        -2.02602
O         17.14262        36.26893        -1.44078
O          8.93019        32.74820         1.04979
O          1.85272        20.87135         1.72544
O          1.86797        12.46648         1.77186
O          8.39323        24.19085        -2.24991
O         11.57297        31.75839        -2.39107
O          7.74060        36.04798        -1.69412
O          5.87405         7.99758         1.40875
O          5.99689        29.43024         1.72233
O          7.01704        30.70631        -1.48776
O         16.95643        26.79902         1.35742
H         16.92147        27.69878         1.74788
O         16.69117        14.94106        -1.57785
H         17.63843        15.17365        -1.46899
O         12.52249         5.93171         1.44614
H         11.75804         5.53641         1.91744
O          1.02743        29.51044        -1.03253
H          0.95725        30.48241        -1.14427
O         15.22794        17.28136        -1.81472
H         15.60415        16.42778        -2.14641
O         14.96351         4.55405         1.54658
H         14.13788         5.05886         1.76166
O          3.98759        27.49780         2.28804
H          4.78570        28.03092         2.52207
O          5.28734        35.95908         2.34652
H          4.60355        35.42313         2.81585
O         13.74606        20.23921        -2.36157
H         13.78959        21.10127        -2.84564
O         15.08517        27.22799        -2.72192
H         15.11053        28.22618        -2.88667
H          1.24540         2.34039         1.75754
H         -0.77770         3.54805         1.19072
H         -0.88497         5.78096         0.46218
H         -0.95257         7.78121         0.51080
H         -0.96105        10.22766         0.66163
H         -1.03339        12.15652         0.21009
H         -1.04520        14.56064         0.07335
H         -1.02294        16.47869         0.11328
H         -1.00313        18.90808         0.21442
H         -1.01274        20.85201         0.02284
H         -0.94962        23.26160         0.09939
H         -0.95219        25.14234         0.29695
H         -0.89618        27.58511         0.29318
H         -0.80865        29.35819         1.35945
H         -0.76372        31.77613         1.69821
H         -0.88693        33.62904         0.64318
H         -0.89901        36.05466         0.25842
H          0.28126        38.20689        -0.05616
H          4.06813         2.48152         1.67566
H          2.39832        39.49924        -0.16770
H          6.31463         2.34087         0.79253
H          4.84919        39.59555        -0.07109
H          8.74995         2.30438         0.30974
H          7.34628        39.63843        -0.17585
H         11.17964         2.29791         0.02081
H          9.88361        39.61428        -0.08114
H         13.64967         2.34753        -0.08565
H         12.31893        39.55813         0.06416
H         16.16044         2.35018        -0.08827
H         14.69884        39.50634         0.43154
H         18.60525         2.35302        -0.26670
H         17.09171        39.45258         0.99663
H         20.69554         3.58902         0.25700
H         21.75280         5.72699         1.02232
H         21.57027         8.11613         1.56720
H         21.20282         9.85023         2.34291
H         20.90455        12.15854         3.01167
H         20.57325        13.93339         3.62219
H         20.70105        16.40503         3.71324
H         21.76269        18.92616         1.22869
H         21.88167        20.49795        -0.76449
H         21.88428        23.18844        -1.75400
H         21.88484        25.53262        -0.94333
H         21.89362        27.22656        -0.13362
H         21.88038        29.61689         0.30078
H         21.81362        31.47579         0.82573
H         21.72014        33.87499         1.22718
H         21.50416        35.63609         2.01242
H         21.38495        38.05802         2.46436
H         19.37886        39.37901         1.79695
