         404
 CSIRO Nanostructure Databank - Neutral Graphene Oxide Data Set
C          1.78096         3.64498         1.19046
C          0.81868         4.40270         1.78713
C          1.40435         6.37960         0.45738
C          0.67049         5.79377         1.44457
C          1.12020         7.76198        -0.01006
C          0.25615         8.67494         0.76631
C          1.11960        10.66542        -0.40104
C          0.26053        10.01864         0.57687
C          1.16928        12.13986        -0.47097
C         -0.02608        12.82206        -0.17171
C          1.16269        14.90852         0.18108
C         -0.04137        14.17459         0.12511
C          1.19571        16.26211         0.74348
C          0.05439        16.75329         1.39179
C          1.27571        18.70801         2.08283
C          0.10911        17.94840         2.10436
C          1.24321        20.97500         2.11743
C          0.02259        21.65433         2.03687
C          1.15778        23.52555         1.00278
C         -0.03622        22.89240         1.40786
C          1.17077        24.91683         0.53732
C         -0.05680        25.66602         0.47510
C          1.02995        27.62963        -0.54299
C         -0.12211        26.96447         0.06482
C          1.02050        29.11802        -0.79333
C         -0.19021        29.91663        -0.55973
C          1.07339        32.01794        -0.72118
C         -0.16273        31.27188        -0.67879
C          1.01097        33.48240        -0.98124
C          0.22803        34.00151        -2.04898
C          1.34383        36.17818        -1.90024
C          0.37297        35.31545        -2.47470
C          1.65988        37.47517        -2.42049
C          3.84362         3.57763        -0.10548
C          2.69965         4.23439         0.25081
C          3.60080         6.34417        -0.84511
C          2.36000         5.55598        -0.40037
C          3.44665         7.75708        -1.24197
C          2.10208         8.40594        -0.95972
C          3.78926        10.92937        -1.36967
C          1.94002         9.85818        -1.14370
C          3.66464        12.25737        -0.87554
C          2.37019        12.90301        -0.63456
C          3.57967        15.09898        -0.30497
C          2.34631        14.28362        -0.26925
C          3.62398        16.44256         0.31144
C          2.40477        17.03362         0.77020
C          3.62534        19.18226         1.24095
C          2.42982        18.34867         1.34392
C          3.65966        20.62558         1.40007
C          2.43095        21.44877         1.52830
C          3.63110        23.56577         1.08060
C          2.37504        22.80515         1.10001
C          3.64193        24.95294         0.56211
C          2.38169        25.57516         0.27770
C          3.62121        27.72418        -0.29405
C          2.38065        26.91572        -0.34917
C          3.62562        29.12827        -0.50312
C          2.35757        29.88196        -0.77580
C          3.57040        32.07643        -0.48559
C          2.27790        31.34647        -0.54926
C          3.70382        33.37124         0.16930
C          1.83195        34.38581        -0.30694
C          3.13381        36.52301        -0.26099
C          2.08198        35.71133        -0.77009
C          3.57921        37.69958        -0.90020
C          2.73282        38.19875        -1.95052
C          6.10980         3.57771        -0.96440
C          4.93480         4.26272        -0.74631
C          6.05717         6.44729        -1.20220
C          4.82463         5.70393        -0.99183
C          6.04133         7.84073        -1.17745
C          4.79749         8.60559        -1.36222
C          6.05945        10.71696        -0.61090
C          4.87532        10.08769        -1.11446
C          6.06498        12.12729        -0.37061
C          4.86819        12.87986        -0.49777
C          6.11464        14.99281         0.10312
C          4.90217        14.33999        -0.38117
C          6.10233        16.37294         0.39695
C          4.84491        17.10075         0.52836
C          6.08258        19.19802         0.98547
C          4.84151        18.50175         0.91973
C          6.13232        20.60679         1.09293
C          4.88784        21.30869         1.23689
C          6.17726        23.53393         0.99689
C          4.90570        22.79552         1.28004
C          6.11393        24.93350         0.49522
C          4.84376        25.63656         0.38387
C          6.05070        27.76232         0.00540
C          4.83339        27.04597         0.00801
C          6.08063        29.15315        -0.22428
C          4.85424        29.82904        -0.46653
C          6.13581        32.00959        -0.28850
C          4.89246        31.29742        -0.61572
C          6.12904        33.40790        -0.14002
C          4.89616        34.08923         0.16243
C          6.06656        36.26235         0.10367
C          4.94762        35.49995         0.42103
C          6.01073        37.69998        -0.13589
C          4.82877        38.33739        -0.59005
C          8.52734         3.53209        -1.30678
C          7.34583         4.24996        -1.24992
C          8.52860         6.37431        -1.13740
C          7.32742         5.71060        -1.24441
C          8.57759         7.83654        -0.99620
C          7.30164         8.60503        -1.03124
C          8.46430        10.62643        -0.09843
C          7.28538         9.99057        -0.49270
C          8.48282        12.04438         0.11724
C          7.28754        12.79673        -0.02514
C          8.53856        14.88283         0.41831
C          7.30255        14.21828         0.19708
C          8.56275        16.30511         0.60193
C          7.34560        17.00709         0.68144
C          8.66477        19.17738         1.01967
C          7.33606        18.42838         1.05559
C          8.62564        20.62948         0.80609
C          7.41001        21.29632         0.95116
C          8.65355        23.42456         0.32934
C          7.45708        22.77049         0.88506
C          8.53857        24.81787        -0.21454
C          7.29659        25.56636         0.21578
C          8.60950        27.74862         0.09317
C          7.30752        27.03691         0.24938
C          8.58271        29.19439        -0.19527
C          7.35452        29.86918        -0.23833
C          8.58538        32.02082        -0.19006
C          7.36259        31.29965        -0.25966
C          8.58489        33.44848        -0.13664
C          7.34796        34.14551        -0.08681
C          8.53642        36.29352        -0.05261
C          7.32458        35.57012        -0.03167
C          8.50374        37.73881        -0.05432
C          7.24816        38.39844        -0.14920
C         11.10514         3.45497        -1.23887
C          9.83100         4.17951        -1.44679
C         11.02943         6.34110        -0.69806
C          9.82731         5.69319        -1.25002
C         11.03155         7.67702        -0.32368
C          9.74085         8.39853        -0.25083
C         11.00369        10.49457         0.40270
C          9.70133         9.83435         0.16648
C         10.96757        11.95127         0.64199
C          9.71962        12.72172         0.36199
C         11.01526        14.84965         0.28187
C          9.74101        14.11644         0.42945
C         11.04609        16.30585         0.46206
C          9.83914        17.01340         0.63096
C         11.08333        19.13380         0.45228
C          9.88395        18.43285         0.67776
C         11.07668        20.58925         0.35417
C          9.86191        21.30643         0.48954
C         11.08698        23.41647        -0.10506
C          9.85362        22.72677         0.22452
C         11.08522        24.84668        -0.27236
C          9.84016        25.59300        -0.18026
C         11.03189        27.74174        -0.53063
C          9.82618        26.96794        -0.21435
C         11.06302        29.19578        -0.27608
C          9.82078        29.89971        -0.22837
C         11.05354        32.03364        -0.11627
C          9.82292        31.32105        -0.19342
C         11.05316        33.46254        -0.03668
C          9.80724        34.17018        -0.07651
C         11.00540        36.32136         0.01632
C          9.78247        35.59660        -0.04453
C         10.97962        37.75859         0.02429
C          9.73002        38.43711        -0.03041
C         13.52655         3.43409        -0.88117
C         12.25757         4.10479        -0.87084
C         13.46702         6.25703        -0.23420
C         12.17902         5.48683        -0.24801
C         13.48196         7.62657        -0.00877
C         12.23245         8.36184         0.04926
C         13.51299        10.43627         0.56966
C         12.19600         9.76533         0.36807
C         13.58155        11.94255         0.67831
C         12.28008        12.68408         0.73169
C         13.57923        14.85175         0.44841
C         12.31179        14.11175         0.30853
C         13.54883        16.26338         0.41664
C         12.29276        16.97956         0.42715
C         13.54887        19.08352         0.22059
C         12.30276        18.39852         0.35468
C         13.49918        20.49636        -0.21572
C         12.27528        21.27773         0.00809
C         13.57252        23.38428        -0.40058
C         12.30339        22.68835        -0.18393
C         13.56705        24.84041        -0.38295
C         12.31355        25.52735        -0.37194
C         13.57178        27.73760        -0.29377
C         12.34413        26.98318        -0.58082
C         13.54335        29.14436        -0.17061
C         12.28381        29.87675        -0.19207
C         13.48550        32.03198         0.11287
C         12.28051        31.31457        -0.07442
C         13.50389        33.44739         0.18289
C         12.27099        34.17294         0.09233
C         13.44808        36.34813         0.19681
C         12.25002        35.62090         0.10779
C         13.44039        37.77426         0.16385
C         12.20850        38.45901         0.08345
C         15.96899         3.38068        -0.62154
C         14.71504         4.04544        -0.49754
C         15.98336         6.18165         0.18565
C         14.68738         5.45551        -0.03116
C         16.01697         7.64472        -0.03540
C         14.75617         8.35150         0.02700
C         15.92532        10.51990        -0.21875
C         14.73542         9.73502         0.13319
C         15.98973        11.98923         0.01106
C         14.80306        12.69117         0.29043
C         16.00820        14.86800         0.21961
C         14.79503        14.13417         0.34774
C         16.01498        16.26340         0.32653
C         14.78036        16.98346         0.42188
C         16.03975        19.18495         0.54966
C         14.76059        18.40930         0.33724
C         16.06215        20.52182        -0.13897
C         14.81345        21.21541        -0.47863
C         16.04577        23.41272        -0.73246
C         14.77851        22.69322        -0.50876
C         16.04597        24.91863        -0.58105
C         14.76376        25.58893        -0.35441
C         16.02445        27.72267        -0.05620
C         14.78774        27.01724        -0.19341
C         15.99885        29.14347         0.12595
C         14.76277        29.82855         0.08357
C         16.03325        32.04408         0.34141
C         14.72193        31.27479         0.35527
C         15.98232        33.50791         0.14981
C         14.75526        34.15884         0.23585
C         15.91643        36.35360        -0.18215
C         14.75107        35.64911         0.50163
C         15.92031        37.82993         0.15308
C         14.68907        38.48472         0.23821
C         18.43633         3.33635        -0.62267
C         17.19976         3.99732        -0.37550
C         18.55167         6.15992        -0.05416
C         17.25442         5.39695         0.09083
C         18.50745         7.63100        -0.20701
C         17.23637         8.31274        -0.21625
C         18.48748        10.54024        -0.54626
C         17.20315         9.76304        -0.51871
C         18.46953        11.97839        -0.19244
C         17.23041        12.66763        -0.09308
C         18.52171        14.83588         0.15884
C         17.24376        14.16425        -0.27144
C         18.52632        16.24940         0.29124
C         17.28140        16.99357         0.27872
C         18.55146        19.09258         0.31642
C         17.30046        18.38076         0.30125
C         18.56630        20.51020         0.19163
C         17.33436        21.17140        -0.30156
C         18.53385        23.46344        -0.14930
C         17.36406        22.70288        -0.57295
C         18.53313        24.86903        -0.12180
C         17.30395        25.62960        -0.27283
C         18.55996        27.78922        -0.22396
C         17.27241        27.00387        -0.09961
C         18.51032        29.11810         0.52809
C         17.24442        29.89244         0.23242
C         18.53359        32.00186        -0.05492
C         17.26860        31.26405         0.16564
C         18.50208        33.52813        -0.08324
C         17.22016        34.24875         0.07719
C         18.44994        36.37821         0.15630
C         17.22849        35.63877         0.07471
C         18.39624        37.81310         0.23887
C         17.14939        38.49989         0.25038
C         19.64514         4.01774        -0.68559
C         20.91119         6.15667        -0.76962
C         19.73458         5.42237        -0.53228
C         20.91706         7.54476        -0.65127
C         19.73050         8.28727        -0.42117
C         20.94810        10.51495         0.02169
C         19.78697         9.77765        -0.49254
C         20.90045        11.86930         0.17584
C         19.69811        12.64673         0.01904
C         20.92584        14.79700         0.48295
C         19.71709        14.09269         0.23199
C         20.94458        16.17336         0.59192
C         19.75752        16.93840         0.47996
C         20.95913        19.14006         0.66004
C         19.77332        18.38676         0.49456
C         20.93698        20.52632         0.63991
C         19.75036        21.23691         0.35478
C         21.00054        23.45532         0.10627
C         19.72407        22.75005         0.47270
C         21.00480        24.80599         0.02997
C         19.77709        25.57889         0.06802
C         20.97224        27.72862         0.36845
C         19.80270        26.99275         0.12699
C         20.98136        29.13661         0.39841
C         19.80931        29.89377         0.35323
C         20.96909        32.10711         0.25445
C         19.81215        31.31992         0.22273
C         20.93956        33.51735         0.22791
C         19.76074        34.25699         0.15476
C         20.88122        36.47779         0.40468
C         19.71114        35.70463         0.25335
C         20.82351        37.87481         0.45485
C         19.60527        38.53948         0.37669
O          2.73021        10.42979        -2.14046
O         17.58727        21.74903        -1.65237
O         16.32530        10.15705        -1.61348
O         14.03103        20.61671        -1.59352
O          2.57203        33.90177         0.80305
O         15.20136         5.70557         1.34075
O         16.06414        24.26832        -1.92113
O          1.66728        26.90599        -1.63219
O          9.40930         8.74178         1.13971
O         18.09707         5.64201         1.25995
O          3.78955        36.12925         0.91957
O          8.06563        27.49503         1.45318
O          9.98498         5.09918        -2.59636
O          4.03272         8.14284        -2.51217
O         19.26768        10.29296        -1.77211
O          4.26006        31.92090        -1.78178
O          1.28562        19.82788         2.91578
O          8.08222        18.72705         2.28950
O         13.74955        11.09665         1.86844
O         11.53426        12.41244         1.94611
O         18.52414        32.72935        -1.33367
O         11.65071        27.39152        -1.81828
O          8.20246         8.54774        -2.22437
O          4.31815        15.00946        -1.56058
O          0.89573         7.73120        -1.48587
O          7.06317        23.44154         2.17371
O          4.24921        23.41607         2.43134
O         11.67716        14.38950        -0.98573
O         15.37584        31.65692         1.61675
O          1.70491        29.48166        -2.02409
O         11.89648         5.21071         1.18651
H         12.75867         5.15070         1.65435
O         15.68242        36.24908        -1.61499
H         16.43920        36.66522        -2.07790
O         16.05841        19.48079         2.00642
H         16.14719        18.62502         2.47848
O          1.64668         5.18268        -1.61656
H          1.25595         6.01273        -1.98711
O         14.96436        35.79046         1.93953
H         14.27229        35.27204         2.40108
O         18.41929        28.77229         1.94253
H         18.25931        29.59504         2.45053
O         19.53905        22.96150         1.92682
H         19.66385        23.91990         2.09945
O          8.29526        24.61647        -1.67322
H          9.14324        24.33034        -2.07806
O         18.66975        28.12237        -1.63610
H         18.67213        27.28737        -2.14970
O         17.19367        14.34538        -1.74423
H         17.88603        13.76936        -2.13495
H          1.93865         2.59848         1.49116
H          0.15558         3.97347         2.55021
H         -0.07986         6.37519         1.99979
H         -0.36964         8.25334         1.56459
H         -0.38016        10.65009         1.20875
H         -0.96929        12.25958        -0.14086
H         -1.00348        14.64711         0.35829
H         -0.87603        16.17382         1.41461
H         -0.74712        18.28908         2.69959
H         -0.87388        21.20999         2.48768
H         -1.00480        23.40172         1.33285
H         -0.97665        25.20912         0.86265
H         -1.06098        27.52029         0.19588
H         -1.14495        29.40850        -0.36485
H         -1.10221        31.84004        -0.61847
H         -0.46581        33.33259        -2.57733
H         -0.22252        35.67648        -3.32527
H          1.06102        37.86884        -3.25421
H          4.02501         2.55560         0.26286
H          2.99035        39.15865        -2.42161
H          6.13328         2.48903        -0.80502
H          4.95101        39.36679        -0.96666
H          8.49893         2.44352        -1.14640
H          7.23764        39.49079        -0.28729
H         11.15014         2.39587        -1.53996
H          9.72372        39.53752        -0.03831
H         13.56060         2.39926        -1.25660
H         12.20252        39.55905         0.07286
H         15.96570         2.34090        -0.98340
H         14.66579        39.57928         0.35620
H         18.41616         2.26044        -0.85048
H         17.15539        39.58998         0.40624
H         20.55917         3.46120        -0.94045
H         21.83179         5.62866        -1.05697
H         21.85307         8.09099        -0.83267
H         21.86201         9.96432         0.28615
H         21.81279        12.37698         0.51673
H         21.87778        14.25589         0.55910
H         21.90824        16.67585         0.75016
H         21.91644        18.63056         0.83413
H         21.87204        21.07162         0.82678
H         21.94042        22.89558         0.00396
H         21.95271        25.33352        -0.14833
H         21.93012        27.20692         0.50661
H         21.95842        29.64015         0.43444
H         21.94792        31.62517         0.38589
H         21.90122        34.03906         0.33143
H         21.86087        35.98699         0.47693
H         21.75357        38.44951         0.56607
H         19.56798        39.63658         0.43562
