         342
 CSIRO Nanostructure Databank - Neutral Graphene Oxide Data Set
C          1.25917         3.63364         1.34103
C          0.05390         4.31096         1.24688
C          1.21193         6.43596         0.84773
C          0.02008         5.69360         1.02201
C          1.18931         7.86326         0.56867
C         -0.01170         8.60661         0.56658
C          1.16891        10.63665        -0.08611
C         -0.02107         9.95479         0.24620
C          1.14810        12.07722        -0.57864
C         -0.08382        12.88378        -0.25320
C          1.16542        14.98262        -0.49337
C         -0.06276        14.23942        -0.31497
C          1.16139        16.38348        -0.77641
C         -0.06410        17.12308        -0.88110
C          1.13455        19.25657        -0.95871
C         -0.07470        18.49286        -0.95552
C          1.13819        20.67426        -0.76458
C         -0.07248        21.43434        -0.72136
C          1.13313        23.51264        -0.20977
C         -0.07501        22.78293        -0.47258
C          1.12801        24.88778         0.09342
C         -0.06254        25.69858         0.12875
C          1.18119        27.74108         0.89992
C         -0.07223        27.02350         0.45459
C          1.23576        29.22795         0.61534
C          3.70869         3.67924         1.43001
C          2.49673         4.33890         1.22746
C          3.67809         6.45226         0.64841
C          2.45850         5.75682         0.92922
C          3.63396         7.80125         0.25684
C          2.40444         8.54370         0.25812
C          3.64079        10.70577        -0.43011
C          2.38003         9.93193        -0.07966
C          3.59301        12.07277         0.29726
C          2.39168        12.85600        -0.19683
C          3.66545        14.97029        -0.15490
C          2.38569        14.23017        -0.25219
C          3.64492        16.38451        -0.73139
C          2.37490        17.12028        -0.97951
C          3.59304        19.32900        -1.13147
C          2.37008        18.53315        -1.08551
C          3.61523        20.68008        -0.69329
C          2.36932        21.38619        -0.54658
C          3.63925        23.46286        -0.15065
C          2.37712        22.77250        -0.26945
C          3.67080        24.86961         0.03990
C          2.41509        25.54727         0.53262
C          3.68418        27.75093         0.45544
C          2.37778        27.04647         0.21445
C          3.69853        29.12592         0.65927
C          2.42666        29.85968         0.63356
C          6.19166         3.61692         1.14723
C          4.99244         4.43213         1.55149
C          6.14409         6.37428         0.55268
C          4.95340         5.76766         0.83533
C          6.16888         7.71379        -0.04590
C          4.86704         8.47074        -0.18284
C          6.14415        10.58994        -0.16102
C          4.92946         9.94470        -0.18328
C          6.20637        12.06425        -0.01838
C          4.93034        12.82366         0.17857
C          6.14652        14.88915        -0.50163
C          4.94353        14.24108        -0.21798
C          6.11734        16.22231        -1.06338
C          4.88441        16.73483        -1.39776
C          6.07407        19.31412        -1.21137
C          4.81871        18.81363        -1.59457
C          6.09906        20.62647        -0.68303
C          4.86839        21.33859        -0.53436
C          6.09169        23.45928        -0.17732
C          4.87113        22.75718        -0.27316
C          6.10764        24.85841        -0.07830
C          4.88487        25.56613         0.02427
C          6.19256        27.68354         0.48185
C          4.92442        27.07372        -0.06083
C          6.17479        29.11751         0.77507
C          4.94226        29.80787         0.79424
C          8.60080         3.51909         0.64026
C          7.39236         4.23226         0.86681
C          8.65905         6.34905         0.30113
C          7.45405         5.74314         0.99185
C          8.62085         7.74330         0.00094
C          7.43401         8.47014        -0.00708
C          8.62330        10.63372        -0.19674
C          7.41297         9.89632        -0.13977
C          8.63900        12.02129        -0.47474
C          7.44127        12.77309        -0.42754
C          8.61715        14.93015        -0.77781
C          7.42155        14.18527        -0.56441
C          8.63621        16.31588        -0.99567
C          7.35453        16.98760        -1.34374
C          8.59224        19.14592        -0.79879
C          7.32089        18.52199        -1.37383
C          8.57129        20.65514        -0.77471
C          7.37540        21.29593        -0.54514
C          8.51317        23.51645        -0.74137
C          7.40372        22.72142        -0.06660
C          8.56691        24.88872        -0.10731
C          7.38746        25.56067         0.09654
C          8.64485        27.59839         0.97979
C          7.35259        26.96154         0.51500
C          8.64864        29.11147         0.89923
C          7.39507        29.79357         0.94968
C         11.05155         3.48334         0.36143
C          9.82914         4.18070         0.39154
C         11.04455         6.23199        -0.49832
C          9.81508         5.60830         0.12229
C         11.12733         7.71130        -0.26336
C          9.85491         8.47565        -0.45893
C         11.17319        10.55645        -0.07302
C          9.87140         9.85746         0.18302
C         11.18257        12.02248        -0.30706
C          9.93184        12.72622        -0.71633
C         10.98133        15.02273        -0.01544
C          9.96962        14.24873        -0.91903
C         11.07594        16.43207        -0.61384
C          9.88282        17.04046        -1.00641
C         11.11554        19.27138        -0.98442
C          9.87012        18.51466        -1.40300
C         11.09531        20.65977        -0.89893
C          9.83501        21.39486        -0.80523
C         11.06189        23.57794        -1.04235
C          9.82864        22.77022        -0.74291
C         11.11969        24.89485        -0.30233
C          9.88058        25.46046         0.35888
C         11.14179        27.62891         0.58569
C          9.83190        26.99482         0.21129
C         11.18625        29.14007         0.68379
C          9.84495        29.78472         0.91205
C         13.53245         3.48917         0.41970
C         12.30282         4.16429         0.20678
C         13.55453         6.25282        -0.21460
C         12.32318         5.54417        -0.12045
C         13.57022         7.67914        -0.41188
C         12.34320         8.38934        -0.31647
C         13.60248        10.57464        -0.33515
C         12.33227         9.85869        -0.28535
C         13.63094        11.94136         0.04691
C         12.39522        12.77290         0.15848
C         13.57941        15.11949         0.03725
C         12.33631        14.30641         0.22106
C         13.56386        16.44178        -0.47626
C         12.32223        17.13865        -0.68985
C         13.59140        19.26368        -0.88846
C         12.34691        18.54527        -0.89058
C         13.59673        20.67666        -0.92224
C         12.34360        21.41192        -0.88230
C         13.61001        23.59486        -1.06813
C         12.34045        22.79606        -0.90828
C         13.58930        24.91969        -0.33063
C         12.31539        25.53589        -0.03879
C         13.57415        27.56202         0.79697
C         12.30759        26.90607         0.50748
C         13.57273        28.88202         1.35264
C         12.25802        29.54771         1.70569
C         16.02042         3.48250         0.56134
C         14.75679         4.16918         0.31795
C         16.10302         6.21050        -0.23976
C         14.76737         5.54796        -0.00438
C         16.08576         7.72188        -0.26095
C         14.84394         8.39920        -0.79441
C         16.05417        10.57177        -0.39706
C         14.82888         9.87989        -0.46729
C         16.09906        11.93370        -0.01664
C         14.87099        12.45758         0.42464
C         16.07562        15.04489        -0.12904
C         14.83626        14.58954         0.37287
C         16.05698        16.41296        -0.53020
C         14.81646        17.12428        -0.63510
C         16.06911        19.22846        -0.97392
C         14.82981        18.53620        -0.85431
C         16.08017        20.67122        -0.97671
C         14.84145        21.38950        -0.91432
C         16.06677        23.48995        -0.57239
C         14.86116        22.80184        -0.80806
C         16.05882        24.88931        -0.21881
C         14.78782        25.56040        -0.02570
C         16.02629        27.56813         0.77687
C         14.78682        26.90197         0.52939
C         16.01539        28.90894         1.28736
C         14.76558        29.53246         1.58502
C         18.45378         3.52392         0.98917
C         17.18963         4.17221         0.72380
C         18.47309         6.36380         0.55947
C         17.13711         5.68567         0.74972
C         18.49820         7.73512         0.23901
C         17.25497         8.40857        -0.13325
C         18.54622        10.59369        -0.18647
C         17.33545         9.82865        -0.65737
C         18.51120        12.03345        -0.23217
C         17.30958        12.75941        -0.11505
C         18.49563        14.93952        -0.40095
C         17.29002        14.22842        -0.18014
C         18.52807        16.37003        -0.54019
C         17.29426        17.10154        -0.69255
C         18.56300        19.15775        -1.19755
C         17.28568        18.48844        -0.94793
C         18.57107        20.71927        -1.19361
C         17.29592        21.39851        -0.93634
C         18.55221        23.48320        -0.45090
C         17.30927        22.78217        -0.63928
C         18.53206        24.86954        -0.10675
C         17.26924        25.55193         0.04795
C         18.48348        27.61101         0.73983
C         17.26235        26.91883         0.51521
C         18.45991        28.96839         1.20613
C         17.22695        29.59052         1.48412
C         19.61833         4.22840         1.05993
C         20.89057         6.36054         0.76325
C         19.66607         5.65872         0.81521
C         20.91419         7.72638         0.51250
C         19.72718         8.45138         0.25628
C         20.94223        10.66154         0.30523
C         19.72530         9.90579         0.10038
C         21.00874        11.98192         0.00284
C         19.80599        12.71002        -0.42188
C         21.01041        15.00461        -0.24368
C         19.79062        14.23660        -0.53127
C         20.98226        16.35793        -0.25154
C         19.76593        17.07524        -0.55132
C         21.00004        19.22250        -0.88648
C         19.81297        18.47067        -0.86196
C         21.00646        20.62401        -0.89701
C         19.83168        21.38745        -0.87935
C         20.99504        23.51510        -0.33011
C         19.80011        22.79163        -0.55057
C         20.97065        24.86153        -0.01712
C         19.75301        25.56567         0.11491
C         20.92022        27.70131         0.69518
C         19.74152        26.96913         0.50712
C         20.88906        29.04127         1.12646
C         19.68736        29.66695         1.39138
O         19.92177        13.38688        -1.72769
O          5.78522        12.52821         1.34680
O         10.81936        12.13897        -1.74760
O          7.42537        17.75292        -2.60606
O          5.49637         7.82406        -1.35525
O          4.77821        17.68111        -2.42239
O          3.76468        16.13506         0.72148
O         18.59603        19.93865        -2.42697
O         12.24587        13.48331         1.43399
O         14.88821        13.54491         1.29312
O          1.13557        11.95883        -2.04868
H          1.23666        12.86203        -2.41685
O         10.93128        23.95184        -2.50090
H         10.92970        23.10616        -3.00352
O          8.14296        23.69195        -2.13710
H          8.90810        24.12299        -2.58408
O          8.55968        18.75401         0.61077
H          9.32105        19.17566         1.06298
O          2.15348        27.12231        -1.23066
H          1.99121        28.06612        -1.44776
O          9.72913         8.64993        -1.89941
H          9.87881         7.75943        -2.30172
O          9.87146        18.64235        -2.84221
H          9.08483        18.14891        -3.18405
O         11.85156        29.15166         3.02196
H         11.69585        28.18376         3.01434
O          7.73145        22.66289         1.35415
H          7.07132        22.08652         1.79258
O         14.95461         8.28291        -2.27765
H         14.19220         8.76706        -2.66403
O          9.78399         9.63807         1.62221
H          9.76001        10.50871         2.07092
O          7.60674         6.04573         2.41024
H          6.85122         5.60327         2.87610
O         10.87046         6.07225        -1.98561
H         11.76731         6.10285        -2.38369
O          2.49253        25.37838         1.99374
H          2.46490        24.41535         2.17817
O          5.17726         4.75365         3.00419
H          4.38447         5.25757         3.28928
O         17.48667         9.69453        -2.10742
H         16.70707         9.17853        -2.42810
O          3.65071        11.01258        -1.84918
H          3.54796        10.17387        -2.34602
O          1.24468        27.65552         2.34446
H          1.51808        26.73596         2.57938
O         10.36854        14.51004        -2.28591
H         10.69208        13.66248        -2.67325
O         11.64471        29.63919        -0.60876
H         10.98550        29.34739        -1.27554
O          9.60586        27.32053        -1.18577
H         10.28522        26.84816        -1.71331
O         10.03874        25.08052         1.75308
H          9.37473        25.58193         2.28396
O         10.36726        15.20009         1.27977
H         10.82934        14.60573         1.91543
O         16.66436         6.07190         2.07466
H         17.30730         5.73360         2.73222
O          8.80036        27.29440         2.40202
H          8.07750        27.75126         2.88203
O          4.92492        27.36449        -1.50714
H          4.04137        27.07781        -1.84272
O         13.68033        23.95914        -2.50074
H         12.78561        24.30009        -2.74637
O         16.51731         5.81163        -1.57923
H         16.02115         6.37382        -2.21554
O          3.34946        11.81301         1.69771
H          4.20688        11.95401         2.16661
H          1.27729         2.55188         1.53548
H         -0.89163         3.76088         1.35450
H         -0.95663         6.19052         0.95584
H         -0.96411         8.11972         0.81532
H         -0.98270        10.48495         0.24619
H         -1.05103        12.37570        -0.13381
H         -1.00901        14.78679        -0.19982
H         -1.02606        16.59543        -0.83890
H         -1.04480        19.00802        -0.95844
H         -1.03379        20.93620        -0.90614
H         -1.03707        23.31260        -0.45955
H         -1.02029        25.22725        -0.13956
H         -1.03036        27.56521         0.48169
H          0.29744        29.80187         0.57034
H          3.70235         2.60727         1.67955
H          2.47806        30.95652         0.55117
H          6.11107         2.51896         1.14003
H          4.94189        30.89639         0.95426
H          8.59021         2.41960         0.70124
H          7.39202        30.88937         1.05601
H         11.05930         2.40235         0.56570
H          9.83433        30.88680         0.92295
H         13.52283         2.42174         0.68655
H         12.37989        30.65828         1.71425
H         16.01009         2.38372         0.63469
H         14.76542        30.55293         1.99646
H         18.46257         2.43027         1.11363
H         17.21381        30.62433         1.85987
H         20.56681         3.70618         1.25435
H         21.83187         5.81959         0.93769
H         21.88663         8.23616         0.50092
H         21.85641        10.14369         0.62463
H         21.97485        12.50354         0.03506
H         21.96311        14.47512        -0.11009
H         21.91234        16.91607        -0.08139
H         21.96920        18.71610        -0.78419
H         21.98041        21.12149        -0.79241
H         21.96669        23.01104        -0.41352
H         21.92657        25.37648         0.14448
H         21.89958        27.24102         0.50939
H         21.83535        29.58356         1.26191
H         19.66333        30.70836         1.74279
