         671
 CSIRO Nanostructure Databank - Neutral Graphene Oxide Data Set
C          6.07072        31.50812         1.39396
C          6.13942        32.85303         1.57971
C          8.36755        27.25764        -0.09134
C          8.29318        28.71327         0.00293
C          7.16256        29.41611         0.65696
C          8.53980        31.45163         1.05277
C          7.23654        30.73528         1.00666
C          8.56297        32.91263         1.16311
C          7.38257        33.59859         1.43411
C          8.56790        35.75458         1.29479
C          7.40301        35.01564         1.57485
C          8.56838        37.17417         1.40152
C         10.78821        23.05068        -0.83903
C         10.74240        24.48201        -0.85262
C          9.57144        25.17619        -0.58266
C         10.77739        27.34898        -0.66463
C          9.53054        26.61055        -0.48670
C         10.84021        28.69323        -0.37808
C          9.62074        29.45328        -0.12043
C         10.97616        31.56857         0.19878
C          9.77543        30.77233         0.56339
C         10.98783        32.95477         0.38698
C          9.90107        33.61147         1.20767
C         10.88937        35.79276         0.42857
C          9.79291        35.08577         0.94163
C         10.74386        37.27624         0.16669
C          9.68025        37.92776         1.01977
C         10.96252        40.03053         1.10689
C          9.78536        39.28111         1.35899
C         11.04162        41.38111         1.47413
C         13.24576        18.83629        -0.69922
C         13.23028        20.23681        -0.89095
C         12.01009        20.93921        -0.90562
C         13.16044        23.03594        -1.67532
C         11.95357        22.33479        -1.09486
C         13.17364        24.50901        -1.32491
C         11.99000        25.20658        -1.06056
C         13.18854        27.34439        -1.25032
C         12.01016        26.63144        -0.98264
C         13.12367        28.85663        -1.34190
C         12.17994        29.38730        -0.26482
C         13.27606        31.62722        -0.60672
C         12.11030        30.89854        -0.29910
C         13.27908        33.04397        -0.53617
C         12.11202        33.71263        -0.04862
C         13.12374        35.91266        -0.76441
C         12.05568        35.13698        -0.02730
C         13.20955        37.33761        -0.26674
C         12.07289        37.99431         0.20948
C         13.30209        40.12627         0.30561
C         12.11915        39.37367         0.54038
C         13.31473        41.56213         0.56452
C         12.17228        42.19125         1.20220
C         12.98521        44.56158         1.30124
C         12.16771        43.51623         1.75907
C         13.43331        45.76392         1.86780
C         15.74712        14.66598        -0.01887
C         15.64683        16.06037         0.00565
C         14.47393        16.72670        -0.37482
C         15.68867        18.88564        -0.41513
C         14.44151        18.14128        -0.47667
C         15.68544        20.26410        -0.79039
C         14.49237        20.94656        -1.02065
C         15.66520        23.05545        -1.55204
C         14.48737        22.35357        -1.37984
C         15.57788        24.49870        -1.79895
C         14.38068        25.22156        -1.50069
C         15.62042        27.35616        -1.77332
C         14.39849        26.65358        -1.52081
C         15.62903        28.86095        -1.91483
C         14.45673        29.55650        -1.27025
C         15.72187        31.66128        -1.02251
C         14.49253        30.90869        -0.97479
C         15.72322        33.06720        -1.01289
C         14.48138        33.79752        -0.83631
C         15.66236        35.96650        -1.14740
C         14.47203        35.20203        -0.85825
C         15.54548        37.39521        -1.11213
C         14.40065        38.06740        -0.51282
C         15.57926        40.31390        -0.72579
C         14.42889        39.45926        -0.25200
C         15.79870        41.51338         0.14280
C         14.53909        42.25959         0.39160
C         15.83635        44.40010         0.52737
C         14.63117        43.65131         0.34766
C         15.80107        45.79317         0.85788
C         14.61111        46.45709         1.39932
C         15.82949        48.62118         1.36927
C         14.67056        47.83978         1.63157
C         15.83418        50.02342         1.52510
C         18.23549        10.45883         0.42632
C         18.15828        11.83331         0.61397
C         16.99667        12.58768         0.29689
C         18.09045        14.78081         0.77278
C         16.93238        13.98883         0.38057
C         18.07633        16.16582         0.71191
C         16.75563        16.88501         0.62106
C         18.08601        19.00302         0.20869
C         16.86629        18.27135         0.04116
C         18.16870        20.34391        -0.23246
C         17.01929        20.91528        -1.06716
C         18.31967        22.99260        -1.31292
C         16.94745        22.43858        -0.95922
C         18.53100        24.19581        -2.04614
C         16.63973        25.24916        -2.30382
C         18.11713        27.32323        -2.31088
C         16.78076        26.65570        -2.13092
C         18.21268        28.76966        -1.91572
C         16.95261        29.42007        -1.42508
C         18.25806        31.58437        -0.93090
C         16.96235        30.85642        -0.99458
C         18.23033        33.07420        -1.05771
C         16.94106        33.82699        -1.17272
C         18.25566        35.85630        -1.46758
C         16.93371        35.22478        -1.30111
C         18.43114        37.26948        -1.76127
C         16.56974        38.30193        -1.57050
C         18.12321        40.30560        -1.46368
C         16.82881        39.56326        -1.09225
C         18.22151        41.67150        -0.77475
C         17.07022        42.26903        -0.03484
C         18.22439        44.47318         0.07450
C         17.05474        43.73220         0.21531
C         18.24306        45.84965         0.41084
C         17.03271        46.51275         0.80491
C         18.24688        48.67651         0.95263
C         17.04774        47.93620         1.04173
C         18.24972        50.07402         1.09360
C         17.02652        50.77728         1.38493
C         18.31434        52.87147         1.70326
C         17.07389        52.16951         1.62982
C         18.37238        54.19732         2.14202
C         21.00981         6.27596         0.11919
C         20.94839         7.78400         0.09207
C         19.58807         8.40038         0.30201
C         20.73621        10.57772         0.68495
C         19.47817         9.74149         0.54616
C         20.56463        11.81320         1.58572
C         19.26893        12.55423         1.29170
C         20.48242        14.82528         1.77861
C         19.23515        14.04855         1.36384
C         20.55986        16.19154         1.05467
C         19.25635        16.96330         0.95401
C         20.43962        19.20545         1.22061
C         19.25327        18.34334         0.77126
C         20.52954        20.56525         0.54404
C         19.36907        21.10158        -0.09267
C         20.64476        23.18550        -0.56513
C         19.42846        22.43637        -0.63945
C         20.61899        24.68372        -0.83738
C         19.49832        25.11871        -1.73927
C         20.72218        27.29450        -2.02637
C         19.44917        26.52887        -2.18513
C         20.68728        28.78232        -2.34942
C         19.40228        29.42557        -1.82572
C         20.71444        31.56086        -1.72597
C         19.54460        30.74769        -1.07154
C         20.69621        33.04491        -1.43712
C         19.51895        33.74718        -1.34330
C         20.66553        35.99470        -1.83210
C         19.45809        35.17220        -1.43147
C         20.72905        37.27886        -0.97519
C         19.46236        38.05810        -1.29389
C         20.63924        40.20213        -1.19550
C         19.44245        39.50824        -1.28942
C         20.63009        41.71229        -1.41744
C         19.37952        42.37143        -0.84262
C         20.72106        44.42646        -0.08909
C         19.40357        43.88527        -0.66202
C         20.69252        45.93361         0.05838
C         19.50542        46.55835         0.38707
C         20.73477        48.74097         0.56459
C         19.55035        47.93034         1.01018
C         20.70899        50.11395         0.63361
C         19.49088        50.81251         1.01818
C         20.86035        52.80169         1.62162
C         19.52606        52.15746         1.35173
C         20.83584        54.29551         1.72745
C         19.66099        54.90562         2.44660
C         20.75821        57.12474         2.08822
C         19.60695        56.38806         2.20031
C         20.75394        58.55583         2.11551
C         23.38413         3.49511         0.73964
C         22.21633         4.14895         0.40647
C         23.12377         6.23999         1.47038
C         22.08683         5.57408         0.58348
C         23.30443         7.71438         1.11717
C         21.99557         8.44477         0.95808
C         23.10511        10.55234         1.54961
C         21.92388         9.78142         1.18069
C         23.04945        11.95087         1.46638
C         21.81684        12.68416         1.46542
C         22.99718        14.87532         1.40712
C         21.78726        14.07367         1.50420
C         22.99152        16.25868         1.49082
C         21.69539        17.02522         1.67806
C         22.98733        19.22951         1.60369
C         21.78244        18.44584         1.03043
C         22.95442        20.73469         1.24684
C         21.72012        21.30973         0.62003
C         23.02973        23.42707         0.01371
C         21.78502        22.60310        -0.01285
C         23.17345        24.56319        -0.95710
C         21.91525        25.20018        -1.45650
C         23.21577        27.28185        -2.12715
C         21.90201        26.62690        -1.88033
C         23.20892        28.77838        -2.30586
C         21.97251        29.45573        -1.92271
C         23.31524        31.61034        -1.80034
C         22.05543        30.85247        -1.38252
C         23.30881        33.05734        -1.52937
C         21.98464        33.77282        -1.44072
C         23.26217        35.96250        -1.66337
C         21.98097        35.22052        -1.81572
C         23.22092        37.41384        -1.37054
C         21.98405        38.08524        -1.24231
C         23.16263        40.19738        -1.06301
C         21.93006        39.50100        -1.16197
C         23.16542        41.63809        -0.76620
C         21.88009        42.39438        -0.85737
C         23.21801        44.53531        -0.44355
C         21.92168        43.92077        -0.92799
C         23.21820        45.90049        -0.07208
C         21.96246        46.63063         0.13136
C         23.20623        48.76679         0.51830
C         21.96006        48.00876         0.33645
C         23.20661        50.20643         0.33535
C         21.89333        50.92547         0.16000
C         23.18470        53.00926         0.71933
C         21.99020        52.28880         0.78514
C         23.21007        54.36328         1.17161
C         22.01698        55.00425         1.59809
C         23.24508        57.19447         1.57032
C         22.09352        56.41116         2.15813
C         23.13998        58.69281         1.35085
C         21.92343        59.30724         2.00386
C         23.20708        61.33641         2.51033
C         21.97782        60.65553         2.40697
C         24.52622         4.18834         1.22249
C         25.63508         6.30635         1.81705
C         24.47969         5.55752         1.49519
C         25.63243         7.70942         1.99763
C         24.28873         8.41339         2.07592
C         25.55773        10.58511         1.89279
C         24.35221         9.88782         1.76350
C         25.57739        12.00347         1.71745
C         24.32197        12.66153         1.32244
C         25.54707        14.84882         1.54462
C         24.29025        14.16272         1.20471
C         25.53827        16.28227         1.26530
C         24.22347        17.02245         1.18792
C         25.46064        19.15723         0.97287
C         24.28362        18.51351         1.22762
C         25.44028        20.61050         0.53827
C         24.26927        21.44629         1.08347
C         25.62208        23.59184         0.46973
C         24.27821        22.88050         0.61460
C         25.60413        24.80448        -0.44609
C         24.44940        25.31907        -0.96794
C         25.63949        27.57225        -1.27845
C         24.49327        26.63134        -1.66514
C         25.81414        28.72204        -2.29645
C         24.50730        29.52435        -2.39898
C         25.77079        31.70013        -2.11316
C         24.51158        30.98509        -2.08347
C         25.78790        33.14007        -1.94896
C         24.55404        33.83413        -1.74028
C         25.74498        35.96537        -1.48979
C         24.53930        35.21838        -1.54758
C         25.71305        37.37746        -1.25715
C         24.44382        38.09442        -1.21341
C         25.63006        40.22648        -0.83005
C         24.40493        39.50914        -1.02040
C         25.63390        41.63439        -0.79101
C         24.43778        42.37275        -0.74312
C         25.66738        44.51099        -0.43903
C         24.43951        43.81324        -0.55478
C         25.68759        45.91564        -0.25667
C         24.46181        46.58081         0.02146
C         25.73718        48.74948         0.03918
C         24.53875        47.99399         0.39233
C         25.64289        50.19805        -0.10551
C         24.40238        50.91907         0.24979
C         25.66030        53.05245         0.29057
C         24.42620        52.34543         0.30720
C         25.59599        54.55966         0.36758
C         24.52667        55.06896         1.35665
C         25.58985        57.38091         0.74900
C         24.39471        56.57088         1.24199
C         25.61953        58.72319         1.43344
C         24.45002        59.37046         1.71969
C         24.41095        60.70585         2.24124
C         26.80932         8.45266         2.12574
C         27.99718        10.62695         2.18587
C         26.81230         9.88292         2.11258
C         28.00945        12.05231         2.09780
C         26.74843        12.74473         1.89294
C         27.93459        14.98297         2.24720
C         26.71490        14.18373         1.83529
C         27.96419        16.37171         1.62000
C         26.80723        17.02214         1.34643
C         28.05959        19.16941         0.82027
C         26.75052        18.41079         0.81900
C         28.01991        20.63449         0.73490
C         26.77402        21.33760         0.58966
C         28.08525        23.30937        -0.04823
C         26.79729        22.67319         0.26723
C         28.12209        24.75445        -0.47441
C         26.86591        25.51417        -0.62216
C         28.19738        27.50620        -1.19722
C         26.93159        26.82110        -1.05525
C         28.23374        28.87681        -1.61947
C         27.02046        29.56732        -1.94265
C         28.27753        31.68234        -2.21612
C         26.99101        30.96236        -2.10478
C         28.28150        33.20632        -2.12982
C         26.99212        33.88353        -1.90126
C         28.20777        36.02315        -1.47916
C         26.99406        35.28284        -1.61411
C         28.17154        37.38128        -1.11664
C         26.91728        38.04915        -1.00510
C         28.13841        40.17180        -0.36106
C         26.82442        39.41191        -0.36724
C         28.16844        41.64636        -0.55416
C         26.92489        42.39849        -0.97075
C         28.22501        44.46758        -0.45354
C         26.93103        43.72561        -0.20989
C         28.22407        45.96787        -0.62156
C         26.92303        46.64617        -0.27316
C         28.22196        48.77827        -0.24853
C         26.94116        48.05369        -0.20456
C         28.22879        50.25404        -0.35192
C         26.92848        51.00613        -0.28657
C         28.14623        53.08995         0.46023
C         26.89871        52.41211         0.12456
C         28.10377        54.47822         0.76631
C         26.91123        55.24083         0.68716
C         26.87500        56.60657         0.89028
C         29.20346        12.78483         2.11668
C         30.42010        14.91725         2.05253
C         29.23843        14.21867         2.08045
C         30.41326        16.42242         2.13858
C         29.29855        16.98988         1.25701
C         30.47285        19.21019         1.48050
C         29.30268        18.50554         1.27786
C         30.42805        20.66135         1.29987
C         29.23185        21.32702         0.84751
C         30.50239        23.44577         0.51855
C         29.30426        22.71807         0.51200
C         30.53305        24.81553         0.07996
C         29.38689        25.48538        -0.32574
C         30.63119        27.55084        -0.82232
C         29.39838        26.86609        -0.76571
C         30.67711        28.85354        -1.33043
C         29.49150        29.55961        -1.66300
C         30.72397        31.70528        -1.82032
C         29.53969        30.97849        -1.92405
C         30.73316        33.15583        -1.67574
C         29.52689        33.87746        -1.74261
C         30.68732        36.01655        -1.08115
C         29.53763        35.38245        -1.81295
C         30.67033        37.35603        -0.78327
C         29.42127        38.10318        -0.84704
C         30.63515        40.17409        -0.22002
C         29.41408        39.44310        -0.51312
C         30.65885        41.60282        -0.23725
C         29.48532        42.33288        -0.85316
C         30.68384        44.51851        -0.32035
C         29.41685        43.80467        -0.49216
C         30.68271        45.89907        -0.09981
C         29.37313        46.60862         0.14414
C         30.66566        48.79264         0.19888
C         29.41157        48.10434        -0.08002
C         30.66024        50.17331         0.42825
C         29.50754        50.99636         0.07988
C         29.35474        52.38481         0.52755
C         31.71298        17.09937         1.80019
C         33.05060        19.03546         1.18510
C         31.76091        18.45064         1.56548
C         33.38465        20.35231         1.45649
C         31.51997        21.48166         1.53971
C         32.99060        23.37431         0.89308
C         31.71231        22.79314         0.99356
C         33.01072        24.89543         0.76978
C         31.88692        25.45075        -0.12928
C         33.17430        27.54821        -0.56469
C         31.83609        26.99602        -0.08611
C         33.23378        28.76762        -1.17562
C         31.98773        29.46786        -1.58630
C         33.30146        31.68173        -1.60386
C         32.00005        30.96526        -1.82159
C         33.24317        33.19424        -1.32840
C         31.93423        33.83247        -1.31246
C         33.17135        35.91693        -0.70627
C         31.83209        35.16334        -0.59251
C         33.10789        37.36096        -0.23449
C         31.87854        38.04063        -0.31136
C         33.02320        40.10542         0.47908
C         31.82156        39.43232        -0.01811
C         33.02809        41.64948         0.50451
C         31.83419        42.33794        -0.00543
C         33.12324        44.46702         0.10883
C         31.88782        43.76405        -0.13813
C         33.11323        45.87797         0.18336
C         31.90145        46.61275         0.14169
C         31.85694        48.01934         0.34219
C         34.38817        21.22579         0.96829
C         35.46186        23.38783         0.84721
C         34.24923        22.65037         0.96767
C         35.54196        24.76912         0.58198
C         34.32099        25.51497         0.32518
C         35.69593        27.35134        -0.56803
C         34.37007        26.76743        -0.25196
C         35.78290        28.78157        -1.06481
C         34.52461        29.50933        -1.51668
C         35.72248        31.67591        -0.89562
C         34.42010        30.91631        -0.89670
C         35.66994        33.08283        -0.75943
C         34.41673        33.75766        -0.67146
C         35.59787        35.88933        -0.22717
C         34.32099        35.12115        -0.04236
C         35.57694        37.28093         0.28642
C         34.32080        38.05280         0.08457
C         35.53334        40.14899         0.66719
C         34.30887        39.40678         0.42815
C         35.50808        41.58302         0.64409
C         34.33700        42.33604         0.45963
C         34.33308        43.73246         0.29051
C         36.78964        25.43096         0.53458
C         38.09108        27.48042         0.05226
C         36.89451        26.75982         0.06753
C         38.14007        28.87165        -0.27996
C         36.98056        29.56432        -0.70905
C         38.15233        31.75008        -0.44570
C         36.95528        30.99815        -0.72299
C         38.14223        33.18863        -0.42196
C         36.89691        33.82686        -0.64086
C         38.53401        36.27384         0.14287
C         36.72541        35.26351        -0.65899
C         38.16753        37.33788         0.90878
C         36.82623        38.00501         0.78603
C         36.74761        39.46741         0.78620
C         39.33003        29.62061        -0.05853
C         40.55926        31.73681         0.13916
C         39.34615        31.01091        -0.15050
C         40.55337        33.08976         0.23140
C         39.36934        33.89963         0.00326
C         39.51585        35.23510         0.36639
O         22.62867        24.25209        -2.28771
O         18.74772        13.21868         2.50442
O         17.43955        37.82772        -2.56148
O         24.87741        16.52924        -0.03909
O         25.13020        20.51453        -0.84400
O         32.08000        30.02794        -2.94133
O         23.63797        21.40789         2.39452
O         17.59754        24.54068        -3.02881
O         18.31614        32.40893         0.28279
O         28.22089        23.67281        -1.48146
O         32.80815        40.87502         1.71577
O         26.10425        50.67208        -1.44497
O         13.49663        44.35785        -0.01256
O         35.89091        37.33146         1.74986
O         24.39057        13.33989         0.00005
O         22.72931        35.55964        -3.02608
O         28.15279        41.11064         0.78894
O         24.08562        26.58234        -3.06470
O         35.99599        27.65425        -1.98379
O         23.96449        48.32312         1.70570
O          9.50872        30.76295         2.00954
O         16.77358        41.45508         1.20382
O         23.77604        29.22550        -3.63474
O         22.72473        33.46119        -0.19591
O          8.68221        29.44134        -1.24003
O         18.84432        26.86933        -3.49357
O         23.39367        23.76810         1.39752
O         16.92199        29.74276        -0.00974
O         27.49304        18.55418        -0.42882
O         33.64886        32.56286        -2.63620
O         29.10874        50.79831        -1.35307
O         37.80112        36.06632        -1.04379
O         28.35466        32.50768        -3.43110
O         22.26497        41.90823         0.45529
O         32.52099        20.99160         2.37584
O         21.83689        44.34798        -2.29775
H         21.07369        43.88500        -2.72204
O         26.90854        43.40536         1.20937
H         27.09048        44.22815         1.71073
O         20.40152        15.00306         3.20261
H         19.86980        14.25322         3.55658
O         21.97112        18.32524        -0.39675
H         22.92884        18.22328        -0.59823
O         10.35382        33.45398         2.61352
H         10.25895        32.49229         2.81837
O         20.46618        25.35258         0.44948
H         21.06874        24.92568         1.09655
O         25.26029        28.20446        -0.02596
H         25.39828        27.56655         0.70547
O         21.06002        11.03842        -0.64951
H         21.16152        10.23092        -1.20850
O         26.13885        28.17261        -3.58055
H         25.29425        28.09895        -4.08896
O         27.78370        15.21347         3.68504
H         28.54036        15.79790         3.94705
O         32.78821        25.33789         2.15300
H         33.48559        24.93109         2.70985
O         25.91054        24.17171         1.79336
H         25.03963        24.33740         2.22471
O         19.75880        47.66683         2.44771
H         19.88992        48.53246         2.89068
O         12.62129        36.02069        -2.16158
H         13.33585        36.42713        -2.69775
O         20.61672        41.92481        -2.85731
H         19.77473        41.51847        -3.18758
O         32.28058        25.07429        -1.47503
H         31.51158        25.18933        -2.07220
O         25.15341        54.98125        -0.96374
H         25.72519        54.52947        -1.62064
O         24.95329        54.77887         2.72380
H         24.98503        53.80344         2.82681
O         34.01448        30.72605         0.48425
H         34.16319        31.56425         0.97231
O         16.81335        22.72177         0.46549
H         16.81645        23.69316         0.59512
O         17.34402        20.60937        -2.45439
H         17.38975        19.63525        -2.55206
O         20.88860        15.85581        -0.31127
H         21.21336        16.68103        -0.75136
O         15.50812        29.13416        -3.35390
H         16.13492        28.54834        -3.83138
O         29.69522        42.28652        -2.29388
H         30.40497        42.92347        -2.51945
O         16.35182        17.08791         2.02610
H         16.35742        16.20871         2.46163
O         34.09266        34.98624         1.39856
H         34.52457        35.75129         1.84599
O         18.07588        40.61465        -2.90143
H         17.95757        39.74872        -3.35745
O         33.51665        35.97204        -2.11162
H         32.74254        36.31557        -2.60720
O         21.68248        51.11491        -1.28799
H         22.45316        51.61571        -1.63209
O         21.38680        17.16653         3.07527
H         22.14009        17.63327         3.50880
O         19.26197        44.41073        -2.01994
H         18.41300        44.08215        -2.38457
O         22.38606        56.22720         3.58794
H         23.27040        55.79074         3.63803
O         19.86123        30.32743         0.26232
H         19.51427        31.00718         0.88336
O         20.49252        11.31484         2.93948
H         19.95002        11.95274         3.45585
O         20.52103        31.55308        -3.16194
H         20.76749        30.67696        -3.55385
O         21.33401         8.14824        -1.29521
H         22.26809         7.84102        -1.39467
O         20.77984        36.87308         0.41254
H         20.87149        37.67583         0.96724
O         25.36743        57.65917        -0.68254
H         25.24878        56.76967        -1.10868
O         29.08138        46.41032         1.56352
H         29.85228        46.73328         2.07646
O         29.78114        35.69103        -3.24382
H         29.21290        35.09231        -3.77648
O         23.91532         7.72146        -0.21105
H         24.21809         8.63800        -0.39152
O         22.94710        58.89527        -0.07977
H         23.77190        58.56443        -0.52535
O         28.47745        46.22026        -2.03407
H         27.79207        45.75541        -2.55784
O         20.63577        28.89069        -3.81804
H         20.01265        28.18895        -4.13647
O         21.17599        52.38413         3.02584
H         20.66426        53.00088         3.61547
O         20.40085        36.40046        -3.19398
H         21.25888        36.34093        -3.68303
O         31.50767        34.87696         0.79868
H         32.35616        34.80690         1.30722
O         10.27943        37.39629        -1.21807
H         10.94099        36.91949        -1.77955
O         12.56354        29.19331        -2.64038
H         13.28551        29.10838        -3.30276
O         20.83807        43.96629         1.27062
H         21.49260        43.23030         1.33112
O         30.06103        16.79197         3.52265
H         30.84109        16.60473         4.08647
O         27.02936        42.68292        -2.38539
H         26.16165        43.01493        -2.69720
O         12.97134        22.97292        -3.13015
H         13.76570        23.36926        -3.54731
O         22.24843        30.78562         0.06230
H         22.35314        31.71546         0.38334
O         31.62331        27.49713         1.25718
H         32.13062        26.93108         1.88867
O         23.83434         8.35498         3.44778
H         23.39935         7.48064         3.59460
O         22.56825         6.13125         2.81818
H         22.48462         5.17624         3.02410
O         34.64534        29.69683        -2.93156
H         34.94344        28.84190        -3.31378
O         20.21801        19.48303         2.61813
H         20.34729        18.62796         3.10476
O         15.11716        40.91894        -1.99380
H         14.93494        40.19331        -2.62780
O         12.76576        29.02261         1.01529
H         12.21743        29.41332         1.72785
O         29.56220        16.59099        -0.11284
H         28.88697        17.04532        -0.67185
O         26.51101        39.12189         1.03482
H         26.79206        39.91721         1.54672
O         19.95075        54.70867         3.90033
H         20.74960        55.26611         4.08992
O         22.94716        19.14124         3.05171
H         23.31936        19.99320         3.39205
H          5.10811        30.98397         1.48633
H          5.23197        33.41758         1.83958
H          7.49211        26.66280         0.21015
H          6.19584        28.89199         0.71758
H          6.47543        35.54584         1.83448
H          7.70861        37.67368         1.87473
H          9.88524        22.50339        -0.52517
H          8.63926        24.61546        -0.41501
H          8.95307        39.76649         1.89240
H         10.17302        41.84257         1.96717
H         12.29255        18.28702        -0.69289
H         11.08351        20.39431        -0.66608
H         11.48641        43.70253         2.60271
H         12.86714        46.22493         2.69110
H         14.89438        14.07255        -0.38316
H         13.57413        16.14782        -0.63322
H         13.77435        48.34824         2.01804
H         14.90148        50.53705         1.80185
H         17.34955         9.91769         0.05794
H         16.11716        12.05039        -0.09077
H         16.14589        52.70100         1.88871
H         17.43303        54.71498         2.39048
H         20.23207         5.73925        -0.44911
H         18.68868         7.79133         0.11935
H         18.62777        56.89129         2.17160
H         19.81295        59.06434         2.38171
H         23.46615         2.41402         0.55762
H         21.38888         3.59489        -0.06102
H         23.21104        62.37179         2.87982
H         21.05833        61.14859         2.75692
H         25.47660         3.64441         1.32763
H         26.60297         5.77823         1.83345
H         26.59027        59.20457         1.63068
H         25.36024        61.23528         2.41171
H         27.77698         7.92660         2.16197
H         28.95497        10.09874         2.31331
H         29.04456        54.99298         1.01199
H         27.80773        57.15332         1.09865
H         30.16118        12.24244         2.16591
H         31.38030        14.37895         1.99548
H         31.55213        50.65868         0.85131
H         30.24582        52.90300         0.91242
H         32.64447        16.51220         1.80891
H         33.75435        18.39181         0.63610
H         34.05892        46.41097         0.36118
H         32.79775        48.54861         0.55588
H         35.33028        20.80779         0.58096
H         36.40737        22.83161         0.93786
H         36.47061        42.11313         0.70565
H         35.28356        44.28335         0.35052
H         37.69651        24.89454         0.85155
H         39.00765        27.00416         0.43191
H         38.73143        37.56854         1.82528
H         37.68347        40.04323         0.83955
H         40.24813        29.09028         0.23505
H         41.48223        31.16842         0.32381
H         41.48136        33.61879         0.49524
H         40.45344        35.51441         0.87427
