         252
 CSIRO Nanostructure Databank - Neutral Graphene Oxide Data Set
C         30.39682        31.56332        -1.42376
C         30.45541        32.79475        -1.53062
C         30.73932        35.71656        -0.30830
C         30.62550        36.85486         0.27367
C         30.57641        39.84802         1.01496
C         30.41565        41.09352         1.15835
C         32.74935        28.83174        -0.35759
C         31.66659        29.31560        -0.72339
C         32.81083        31.50527        -0.82172
C         31.43402        30.75982        -0.76945
C         32.90493        32.88741        -1.45199
C         31.54189        33.74696        -1.85439
C         32.88578        35.90421        -1.25935
C         31.60162        35.04521        -1.10960
C         32.84800        37.24212        -0.54371
C         31.74227        37.75772         0.14787
C         32.87712        39.97206         0.60407
C         31.70403        39.12399         0.62181
C         32.77983        41.39407         0.85834
C         31.48284        42.00052         1.01680
C         32.41502        44.18973         0.51006
C         31.49839        43.43233         0.87673
C         35.38526        27.39853         0.67127
C         35.16805        28.75091         0.41721
C         34.05894        29.40092        -0.15928
C         35.25749        31.59038        -0.11170
C         34.06957        30.77386        -0.49407
C         35.44133        32.90141        -0.81447
C         34.18594        33.64101        -1.24083
C         35.40931        35.86618        -0.96301
C         34.11804        35.07483        -0.71546
C         35.40355        37.28740        -0.42176
C         34.08397        38.08654        -0.70692
C         35.37019        39.72850         0.58296
C         34.08747        39.29658         0.18702
C         35.33881        41.89444         1.05493
C         33.97796        42.32405         0.54177
C         35.08381        44.66004         0.59639
C         33.83578        43.86069         0.76136
C         35.24101        45.99999        -0.01199
C         37.70536        27.34506         0.98532
C         36.38839        26.74227         1.07908
C         37.68708        28.72838         0.82339
C         36.38990        29.50680         1.01578
C         37.77021        31.73178         0.75435
C         36.42900        30.98699         0.59798
C         37.85568        33.09800         0.09074
C         36.73165        33.65893        -0.69213
C         38.06064        35.91038        -0.82645
C         36.72892        35.14770        -0.96642
C         37.94113        37.37488        -0.40449
C         36.67629        38.12026        -0.78876
C         37.82715        40.21087         0.42224
C         36.59442        39.40683         0.01572
C         37.69341        41.73211         0.02987
C         36.50761        42.49266         0.68536
C         37.75164        44.74668         0.64428
C         36.46931        43.97652         0.66604
C         37.66286        46.25791         0.31534
C         36.35224        46.52680        -0.18317
C         40.21709        24.68678         1.84811
C         39.14850        25.33227         1.56043
C         40.21149        27.35651         1.06321
C         38.95024        26.64010         1.14404
C         40.22199        28.70351         0.69295
C         38.94425        29.41630         0.49506
C         40.29531        31.61752         0.48991
C         38.98926        30.91609         0.35345
C         40.28722        33.00757         0.53935
C         39.07703        33.76778         0.19698
C         40.30779        35.93997         0.18854
C         39.15728        35.18487        -0.08213
C         40.32939        37.37084         0.07592
C         39.08627        38.08470        -0.11321
C         40.31465        40.34140         0.16953
C         39.06900        39.60729        -0.27631
C         40.31416        41.70849         0.25593
C         39.03913        42.49464         0.11138
C         40.36452        44.56462         0.88457
C         39.06188        43.98035         0.41742
C         40.42305        45.84282         1.43513
C         38.49438        47.05832         1.05116
C         40.26203        48.65802         1.31744
C         39.12264        48.33849         0.91482
C         42.81577        24.74834         1.99536
C         41.48052        25.22115         1.87694
C         42.78606        27.42731         1.25368
C         41.48233        26.71211         1.52390
C         42.64942        28.53787         0.17403
C         41.44923        29.42158         0.48076
C         42.79598        31.48550         0.21956
C         41.50885        30.81591         0.42045
C         42.84478        32.96680         0.39251
C         41.57265        33.73142         0.63984
C         42.82343        35.96816         0.08797
C         41.56599        35.23910         0.51208
C         42.76807        37.42569        -0.13414
C         41.57288        38.09819         0.05897
C         42.76422        40.33171        -0.29833
C         41.61094        39.58489         0.38795
C         42.80162        41.76005         0.20896
C         41.58558        42.44122         0.40240
C         42.81394        44.53187         0.97743
C         41.59189        43.84975         0.70503
C         42.85189        45.92968         1.26083
C         41.61599        46.64435         1.45527
C         42.83990        48.68254         1.50672
C         41.55626        48.09787         1.49613
C         43.88235        25.29422         1.66904
C         45.21566        27.12521         0.47372
C         44.19610        26.75829         1.51317
C         45.23416        28.55523        -0.03160
C         43.94109        29.31270        -0.11793
C         45.26144        31.48734        -0.46507
C         43.95792        30.79836        -0.02868
C         45.30560        32.97983        -0.17929
C         43.95715        33.64240        -0.41408
C         45.32439        35.91650        -0.33299
C         44.01844        35.18355        -0.35879
C         45.32580        37.39562        -0.11663
C         44.05474        38.13767        -0.50430
C         45.25262        40.26645         0.04797
C         44.07777        39.59788        -0.12041
C         45.28727        41.71238         0.22568
C         44.05641        42.39320         0.41871
C         45.42894        44.53009         0.87845
C         44.06008        43.75847         0.94778
C         45.32460        46.00944         0.86592
C         44.12266        46.64604         1.21460
C         43.90826        48.02872         1.39148
C         47.67190        27.15506         0.14707
C         46.50256        26.67706         0.40516
C         47.83281        28.56568         0.17857
C         46.52426        29.31261         0.20442
C         47.79600        31.53932        -0.04095
C         46.50785        30.79847         0.07686
C         47.77442        32.91000        -0.07813
C         46.49959        33.64594        -0.11376
C         47.79436        35.85376        -0.40494
C         46.55564        35.14722         0.13331
C         47.78327        37.35043        -0.29064
C         46.50474        38.06130         0.00570
C         47.70400        40.21992        -0.52312
C         46.56768        39.54959         0.27379
C         47.73736        41.72937        -0.30913
C         46.54038        42.41310         0.10608
C         47.72498        44.55625        -0.16033
C         46.57960        43.83091         0.27418
C         47.55630        45.96618        -0.04099
C         46.53478        46.54948         0.39570
C         50.35161        28.79424         0.24721
C         49.03059        29.27127         0.12854
C         50.39694        31.49636         0.06538
C         49.07071        30.76471        -0.08318
C         50.34547        32.98177         0.33834
C         49.03412        33.69043         0.13901
C         50.27604        35.93769         0.07216
C         49.12242        35.08865        -0.46077
C         50.25018        37.39382        -0.31102
C         49.07862        38.08533        -0.30475
C         50.19666        40.31368        -0.97056
C         49.08452        39.60743        -0.19632
C         50.15777        41.70766        -1.00988
C         48.91278        42.41693        -0.64580
C         50.07535        44.41802        -1.08089
C         48.87564        43.87412        -0.62880
C         51.47932        29.34544         0.33059
C         52.78106        31.60373         0.38145
C         51.71052        30.74041         0.34362
C         52.69296        32.89446         0.36090
C         51.64645        33.76313         0.28089
C         52.67703        36.15017         0.05883
C         51.59131        35.22784         0.39170
C         52.68355        37.32202        -0.32577
C         51.50907        38.08290        -0.78518
C         52.58762        40.41908        -1.38779
C         51.44436        39.51624        -1.22563
C         52.50781        41.65344        -1.51059
C         51.37471        42.49613        -1.35369
C         51.17864        43.87161        -1.38837
O         38.84907        30.11275        -0.83889
O         49.88551        31.15478        -1.25591
O         44.61837        28.78624        -1.32771
O         49.54992        33.43348         1.48198
O         36.42919        32.83143        -1.88252
O         31.92570        31.46397         0.37591
O         37.14971        44.44887         1.92654
O         35.40107        31.72262         1.36270
O         42.12690        27.62903         2.52512
O         35.39274        40.63597         1.65490
O         50.71384        35.73076         1.44377
O         44.92989        43.93638         2.10439
O         39.24196        46.31547         2.00516
O         47.59914        36.61935        -1.60728
O         42.48164        33.34341         1.74416
O         42.44429        35.81192         1.51941
O         33.81300        33.15059        -2.55265
O         43.63102        33.29087        -1.75301
O         44.66646        35.61513        -1.58633
O         34.42637        44.50267         1.88825
O         39.16203        43.49630        -0.96621
O         51.37461        38.41702        -2.18643
O         46.39022        30.17416         1.39808
O         36.05038        35.55957        -2.20783
O         31.55321        33.97557        -3.24073
H         32.27790        34.60957        -3.45578
O         36.18045        29.50120         2.44673
H         35.48481        30.17162         2.63763
O         38.05992        40.10703         1.83826
H         37.23278        40.39126         2.29370
O         44.05724        38.13543        -1.96611
H         43.32529        38.73367        -2.25502
O         46.86458        39.71785         1.69252
H         46.11743        39.35506         2.21414
O         33.09529        36.10218        -2.66836
H         33.53328        36.98273        -2.80292
O         36.75953        38.34312        -2.21697
H         35.89464        38.72171        -2.51203
O         41.90462        39.64218         1.81203
H         41.15063        39.24970         2.30071
O         47.40380        39.98621        -1.90999
H         48.15713        40.29362        -2.45660
O         38.58646        36.02984        -2.18256
H         37.86412        36.41922        -2.73023
O         46.62788        35.33601         1.57616
H         46.03521        34.69330         2.02009
O         33.93979        34.87633         0.69338
H         34.27814        35.67249         1.17406
O         45.32608        31.36910        -1.89823
H         44.65674        32.03676        -2.24401
O         49.42581        34.84557        -1.85205
H         48.93931        35.52044        -2.38515
O         42.29552        27.79948        -1.01940
H         42.98936        27.97497        -1.70000
O         42.46510        40.36486        -1.72383
H         43.05665        41.02001        -2.14989
O         49.43842        39.88819         1.18105
H         48.63331        39.76232         1.74244
O         37.28292        41.74637        -1.34883
H         37.77032        42.47521        -1.79936
O         37.92825        31.95124         2.17823
H         37.06452        32.26617         2.52580
O         35.46112        37.03667         1.01245
H         35.49229        37.89093         1.49968
O         34.13255        38.53259        -2.12996
H         33.50215        39.27981        -2.22095
O         34.11931        42.22777        -0.91522
H         33.29282        42.57503        -1.31637
O         44.67445        27.28324         2.73828
H         43.91000        27.33644         3.35822
O         39.01847        39.85061        -1.69637
H         38.22264        39.39695        -2.07435
