         200
 CSIRO Nanostructure Databank - Neutral Graphene Oxide Data Set
C        -11.04970         0.69451         0.52878
C         -9.82407         1.43910         0.35213
C         -8.58824         0.71073         0.19365
C         -7.37275         1.42829        -0.01763
C         -6.14088         0.71433        -0.12332
C         -4.91778         1.42930        -0.29072
C         -3.68740         0.71856        -0.41498
C         -2.46620         1.44290        -0.58414
C         -1.21438         0.72576        -0.64253
C          0.02172         1.40568        -0.72037
C          1.26079         0.72112        -0.67238
C          2.50198         1.43832        -0.65348
C          3.72292         0.74181        -0.58547
C          4.96236         1.46736        -0.50038
C          6.17136         0.77022        -0.30110
C          7.40146         1.50222        -0.31740
C          8.62845         0.88340         0.23860
C          9.92953         1.59456         0.48445
C         11.04494         0.74832         0.85570
C         -9.82102         2.82600         0.35055
C         -8.62710         3.58095         0.10620
C         -7.38635         2.85612        -0.12190
C         -6.17513         3.55214        -0.30589
C         -4.93239         2.85807        -0.33873
C         -3.70438         3.57911        -0.46071
C         -2.49791         2.86327        -0.59611
C         -1.25018         3.62232        -0.79347
C          0.04513         2.86900        -0.85356
C          1.29636         3.57379        -0.53979
C          2.48981         2.88275        -0.53471
C          3.74071         3.61017        -0.43861
C          4.95570         2.90639        -0.51724
C          6.19014         3.63527        -0.63069
C          7.36351         2.82508        -0.74030
C          9.13398         3.91735         0.03813
C         10.07720         2.96546         0.60611
C         -8.64485         4.97006         0.18140
C         -7.50336         5.77478        -0.23275
C         -6.17444         5.00763        -0.50397
C         -4.91322         5.74971        -0.35867
C         -3.69632         5.03289        -0.40970
C         -2.46661         5.75398        -0.36904
C         -1.21934         5.06278        -0.44823
C         -0.01602         5.73271        -0.27742
C          1.25197         4.96948         0.00484
C          2.52302         5.74112        -0.22336
C          3.74994         5.03530        -0.34752
C          5.00222         5.74792        -0.32726
C          6.23243         5.04847        -0.48355
C          7.57105         5.81074        -0.47071
C          8.63426         5.12136         0.40909
C         -7.38247         7.19055         0.12480
C         -6.18102         7.86353         0.04620
C         -4.92712         7.15966        -0.18569
C         -3.70123         7.86901        -0.09154
C         -2.46436         7.16776        -0.19366
C         -1.22516         7.86836        -0.08937
C          0.00446         7.15393        -0.11573
C          1.24473         7.84957        -0.00087
C          2.49974         7.13891        -0.09135
C          3.74023         7.85376        -0.01825
C          4.96605         7.16592        -0.11546
C          6.21639         7.89410         0.04006
C          7.41743         7.24759        -0.04867
C         -6.12221         9.29110         0.29351
C         -4.94518         9.97291         0.30604
C         -3.68096         9.29314         0.13129
C         -2.47062         9.97363         0.20638
C         -1.21865         9.29066         0.10289
C          0.01320         9.96185         0.22016
C          1.24295         9.26506         0.15992
C          2.49653         9.95268         0.27564
C          3.70771         9.28336         0.19917
C          4.96620         9.98210         0.35361
C          6.15182         9.32184         0.29916
C        -11.05376        -0.66658         0.53626
C         -9.82942        -1.42205         0.40386
C         -8.58375        -0.70563         0.25677
C         -7.35905        -1.43097         0.17655
C         -6.11805        -0.71280         0.00233
C         -4.88988        -1.40584        -0.06799
C         -3.68620        -0.71042        -0.33550
C         -2.43655        -1.42565        -0.45945
C         -1.21263        -0.70523        -0.55801
C          0.02967        -1.40719        -0.57281
C          1.27009        -0.70544        -0.62066
C          2.50220        -1.41231        -0.58883
C          3.74093        -0.69631        -0.57683
C          4.96475        -1.39971        -0.49805
C          6.20044        -0.67738        -0.29958
C          7.40663        -1.35599        -0.16554
C          8.59674        -0.64404         0.32185
C          9.86841        -1.38647         0.46552
C         11.03639        -0.62064         0.80576
C         -9.83772        -2.80917         0.41163
C         -8.62519        -3.56197         0.32213
C         -7.36986        -2.85335         0.23248
C         -6.15497        -3.59724         0.19048
C         -4.82025        -2.88544         0.26955
C         -3.75605        -3.56663        -0.60322
C         -2.42173        -2.84748        -0.42518
C         -1.20087        -3.52085        -0.36403
C          0.03813        -2.82426        -0.44739
C          1.27267        -3.53956        -0.41593
C          2.50473        -2.84039        -0.51650
C          3.74488        -3.55214        -0.50449
C          4.98148        -2.83681        -0.49169
C          6.20703        -3.54579        -0.40715
C          7.51453        -2.80759        -0.55718
C          8.68715        -3.52274         0.07622
C          9.86617        -2.76553         0.38896
C         -8.63980        -4.95981         0.36553
C         -7.42756        -5.71775         0.36546
C         -6.17351        -4.99147         0.23044
C         -4.94257        -5.75060         0.16943
C         -3.67725        -5.12349        -0.41399
C         -2.43916        -5.63546         0.32885
C         -1.15542        -4.93125         0.06410
C          0.08676        -5.69493        -0.09485
C          1.28132        -4.97941        -0.33480
C          2.51277        -5.67246        -0.49556
C          3.74588        -4.98102        -0.52054
C          4.99399        -5.69357        -0.40715
C          6.21370        -4.95379        -0.28596
C          7.43695        -5.65363         0.02039
C          8.63641        -4.88925         0.24886
C         -7.43170        -7.09332         0.55768
C         -6.16892        -7.86766         0.80188
C         -4.94053        -7.09554         0.41678
C         -3.67674        -7.87174         0.46996
C         -2.38070        -7.12939         0.47344
C         -1.15134        -7.85111         0.11466
C          0.06164        -7.13411        -0.07849
C          1.25336        -7.86033        -0.32782
C          2.47625        -7.12775        -0.64489
C          3.81372        -7.89322        -0.56283
C          5.02173        -7.10473        -0.29768
C          6.21511        -7.78435         0.06061
C          7.40902        -7.04136         0.21686
C         -6.13297        -9.24074         0.14043
C         -4.98041        -9.89602        -0.13312
C         -3.67043        -9.29268         0.07484
C         -2.47217        -9.94872        -0.06682
C         -1.18766        -9.26380        -0.01247
C          0.03205        -9.96329        -0.15494
C          1.26844        -9.28118        -0.26162
C          2.53382        -9.97526        -0.17840
C          3.75061        -9.31315        -0.17608
C          5.00243        -9.93321         0.17790
C          6.16622        -9.21386         0.26346
O         -3.58469        -5.72413        -1.69064
O          3.17795        -7.60609        -1.84382
O          7.81718        -2.79941        -2.00990
H          7.00296        -2.51311        -2.47647
O         -4.14049        -3.33712        -1.96628
H         -3.99530        -4.22970        -2.40463
O         -6.11401        -8.11694         2.25231
H         -5.16582        -8.20445         2.49576
O          8.28339         0.18862         1.49603
O         -4.36697        -2.98433         1.64798
H         -5.05321        -2.59506         2.22862
O         -2.96032        -7.61615         1.74624
O          8.57157         3.38440        -1.16183
O          8.05790         5.87992        -1.83798
H          8.30764         4.96310        -2.10130
O          1.19627         4.76877         1.48456
H          2.06053         4.39133         1.75746
O         -1.82095        -4.96827         1.44127
O         -7.02505         5.46786        -1.59218
O         -0.60812         3.35953        -2.10256
H         11.96153        -1.16972         1.03723
H         11.97963         1.25826         1.13483
H         11.01062         3.34795         1.05044
H          8.97503         5.61486         1.33022
H          8.34717         7.82640         0.06484
H          7.09887         9.86703         0.42550
H          4.94122        11.06756         0.53070
H          2.48844        11.04187         0.43314
H          0.02168        11.05257         0.36555
H         -2.47008        11.06095         0.37686
H         -4.93542        11.05930         0.47845
H         -7.07083         9.82440         0.45448
H         -8.28500         7.72567         0.45812
H         -9.54223         5.48078         0.56255
H        -10.76477         3.37051         0.50456
H        -11.98910         1.25519         0.64282
H        -11.99690        -1.21981         0.65581
H        -10.79209        -3.34882         0.50493
H         -9.60081        -5.48851         0.45450
H         -8.39192        -7.61397         0.69889
H         -7.09530        -9.74959        -0.02558
H         -5.01735       -10.92098        -0.53506
H         -2.46682       -11.02220        -0.31176
H          0.02273       -11.06352        -0.17561
H          2.51249       -11.05577         0.03151
H          5.00974       -11.01261         0.39015
H          7.10090        -9.72736         0.53330
H          8.33554        -7.56627         0.49441
H          9.52099        -5.41746         0.63855
H         10.79419        -3.31546         0.61331
