         276
 CSIRO Nanostructure Databank - Neutral Graphene Oxide Data Set
C        -10.97476         0.78452         0.12489
C         -9.92447         1.59304        -0.61444
C         -8.56137         0.90539        -0.39411
C         -7.49719         1.58494         0.41798
C         -6.18842         0.87040         0.72831
C         -4.92280         1.66998         0.95212
C         -3.59696         0.92701         0.87042
C         -2.37858         1.57123         0.28386
C         -1.36406         0.63058        -0.37404
C         -0.08609         1.35720        -0.84215
C          1.22616         0.63989        -0.61795
C          2.49583         1.39643        -0.80684
C          3.75732         0.68649        -1.27842
C          5.03747         1.40933        -0.82115
C          6.29509         0.69936        -0.46490
C          7.35638         1.45917         0.31931
C          8.68578         0.68627         0.41776
C          9.92419         1.50667         0.11907
C         11.18669         0.69724         0.34027
C         -9.90178         3.07631        -0.31567
C         -8.80647         3.77392         0.05225
C         -7.56531         3.07823         0.51070
C         -6.28287         3.87690         0.49681
C         -4.95902         3.16830         0.68475
C         -3.71879         3.79245         0.09070
C         -2.46215         3.01101        -0.18954
C         -1.48125         3.56317        -1.27910
C         -0.12847         2.80926        -1.24434
C          1.17542         3.59381        -1.37123
C          2.47305         2.84870        -1.22540
C          3.77579         3.59918        -1.05813
C          4.91130         2.85510        -0.42117
C          6.11222         3.58660         0.08906
C          7.46641         2.93592        -0.10643
C          8.63037         3.59778         0.61108
C          9.80353         2.87770         0.76469
C         -8.87695         5.24286         0.42939
C         -7.58709         5.98990         0.10899
C         -6.46583         5.10722        -0.46026
C         -5.15038         5.88209        -0.63132
C         -3.92211         4.99965        -0.82667
C         -2.62287         5.84178        -0.78913
C         -1.35769         5.08944        -1.03378
C         -0.06889         5.62467        -0.46410
C          1.17975         5.09087        -1.13042
C          2.47965         5.83843        -0.99165
C          3.80043         5.09515        -1.04093
C          5.01079         5.74512        -0.41283
C          6.33988         4.99440        -0.40127
C          7.39971         5.74145         0.40252
C          8.48662         4.98517         0.91239
C         -7.49986         7.32157         0.31737
C         -6.42640         8.15990        -0.35735
C         -5.11220         7.36591        -0.43065
C         -3.84397         7.90467         0.14931
C         -2.66034         6.93977         0.27767
C         -1.31840         7.72959         0.66856
C         -0.03746         6.91027         0.31674
C          1.27665         7.67043         0.44221
C          2.51443         7.11620        -0.19056
C          3.73023         8.02558        -0.49046
C          4.97922         7.18195        -0.05125
C          6.30355         7.96395        -0.15554
C          7.35655         7.12685         0.51129
C         -6.19803         9.61157         0.01408
C         -4.99289        10.21429        -0.04724
C         -3.72801         9.45185         0.13205
C         -2.40164         9.90558        -0.19248
C         -1.23180         9.16443         0.07608
C          0.00767         9.80264         0.08491
C          1.19379         9.16099         0.76953
C          2.51468         9.88807         0.66896
C          3.68588         9.32904         0.28425
C          4.96914         9.98099         0.54376
C          6.16035         9.35832         0.41662
C        -10.95594        -0.55442         0.06024
C         -9.88244        -1.33631        -0.69322
C         -8.51088        -0.57982        -0.52828
C         -7.29042        -1.34602        -0.06650
C         -6.07973        -0.61464         0.44952
C         -4.91261        -1.34758         1.08436
C         -3.62342        -0.58178         1.09020
C         -2.30964        -1.33037         1.01145
C         -1.09056        -0.63102         0.47214
C          0.13870        -1.46201         0.13397
C          1.09098        -0.87484        -0.92385
C          2.43860        -1.60805        -0.94761
C          3.73598        -0.84029        -0.98585
C          4.92819        -1.48302        -0.31684
C          6.20994        -0.75479        -0.11375
C          7.51797        -1.51199        -0.16989
C          8.74934        -0.80944         0.31859
C         10.06923        -1.60219         0.37409
C         11.24867        -0.64689         0.28009
C         -9.73191        -2.72774        -0.16828
C         -8.61555        -3.59191        -0.65139
C         -7.39012        -2.82599         0.11563
C         -6.14668        -3.55531         0.48435
C         -4.92733        -2.89611         1.18342
C         -3.61783        -3.59869         0.79372
C         -2.33561        -2.84083         0.84116
C         -1.05028        -3.56066         1.24644
C          0.17452        -2.91511         0.52180
C          1.07724        -3.76266        -0.35304
C          2.44109        -3.10244        -0.61343
C          3.74844        -3.79584        -0.35005
C          4.99622        -2.98503        -0.15753
C          6.29688        -3.72256        -0.15123
C          7.57113        -2.98807        -0.42579
C          8.85207        -3.73293        -0.31856
C         10.10822        -2.87708        -0.53121
C         -8.67174        -4.99842        -0.04814
C         -7.91736        -6.05099        -0.33091
C         -5.78854        -4.79539        -0.31691
C         -4.89564        -5.76609         0.39270
C         -3.66212        -5.11621         0.97610
C         -2.39886        -5.99532         1.15067
C         -1.09337        -5.13300         1.18281
C          0.12380        -5.92057         0.79302
C          1.23959        -5.23159         0.06266
C          2.54867        -5.95523         0.09791
C          3.80069        -5.17388         0.25076
C          5.10527        -5.87446         0.44018
C          6.27250        -5.24585        -0.37967
C          7.62147        -5.91396        -0.15165
C          8.83801        -5.09518        -0.22082
C         -7.49181        -7.27375        -0.62722
C         -6.20715        -7.96015        -0.27900
C         -4.92944        -7.23316         0.06415
C         -3.60673        -7.83631        -0.33446
C         -2.32498        -7.00220        -0.10552
C         -1.05038        -7.92959        -0.18816
C          0.05186        -7.46241         0.75497
C          1.27288        -8.12240         0.10195
C          2.54372        -7.40072         0.49423
C          3.83023        -8.11945         0.70304
C          5.14430        -7.37148         0.60359
C          6.39062        -8.08429         0.17591
C          7.62725        -7.27896        -0.10634
C         -6.07184        -9.37094        -0.74635
C         -4.90146       -10.03359        -0.70277
C         -3.59927        -9.32671        -0.58021
C         -2.37844       -10.07835        -0.27371
C         -1.17278        -9.44619        -0.03669
C          0.00965       -10.20494         0.23383
C          1.30025        -9.60733         0.35877
C          2.50628       -10.28428         0.41271
C          3.87097        -9.64909         0.67449
C          5.00906       -10.13133        -0.20942
C          6.16549        -9.45488        -0.36147
O         -5.02307         6.80688        -1.76890
O          0.99189        -8.07923        -1.34767
O          2.01946         1.05811         0.52778
O          4.44551        -5.22861         1.55565
O         -5.91914        -4.80964        -1.52859
O          3.89943         8.24766        -1.83409
O         -6.15442        -1.00641        -0.94729
O          3.17651        -3.80266        -1.67300
O         -2.96302        -3.19487        -0.43513
O          5.92154        -5.45121        -1.70966
O         -0.08938        -5.52610         2.17060
O          7.60885        -2.03688        -1.54973
O         -8.12656         0.28056        -1.63558
O         -4.37676        -0.83487         2.32001
O         -1.93303         5.98252        -2.04691
O         -7.94915         2.23818         1.64718
O          6.93212         4.65042        -1.70937
O          6.06289        -7.88674         1.61067
O         -5.69126        -7.91767         1.10577
O          6.10240         1.14020        -1.82164
O          5.70339        -3.30188         1.08680
O         -3.52498        -8.33297        -1.70133
O         -2.56393         3.89144         0.95877
O         -4.75785        -5.52604         1.82400
O          7.62603         3.28606        -1.53277
O          1.90444         3.12926        -2.53106
O          3.20189        -1.46657        -2.17877
O          4.13125         4.37255        -2.24475
O          5.27526        -0.89233         0.99226
O          0.87036        -1.92459         1.31579
O         -1.34915         7.89245         2.04172
O         -1.33551        -0.70757         1.89775
O         -3.92282         8.64342         1.35768
O          2.27219         6.94577         1.22388
O         -0.43908        -7.70572        -1.50220
O          5.10103         3.18385         1.00767
O         -7.28219        -3.44493         1.41747
O          4.76338         6.22511         0.97052
O          8.63855        -0.12997         1.61996
O         -5.55901         4.00280         1.73561
O         -0.17014         1.73783        -2.23765
O          1.70584         5.90249        -2.21768
O         -2.54223         1.49601         1.71286
O          1.79758        -5.85893        -1.13631
O         -5.73573         1.23104         2.06012
O         -6.78791         4.58108        -1.71501
O          3.00642        -7.67108         1.84288
O         -0.00102         5.61979         0.98783
O          9.83964         1.73174        -1.32052
H         10.54597         2.35653        -1.58658
O        -10.16752        -1.36136        -2.10063
H        -10.18805        -0.41287        -2.39556
O         -2.26816        -6.07692        -1.19607
H         -2.31110        -6.58676        -2.03614
O          0.38289        -3.79930        -1.61318
H          0.93031        -4.33687        -2.23011
O         -5.04358        -3.18786         2.57868
H         -5.94175        -2.93409         2.88196
O         -4.17608         4.46032        -2.14074
H         -5.17274         4.47442        -2.29226
O          0.48049        -0.99913        -2.20729
H          1.18669        -0.93885        -2.88834
O          6.51412         8.07077        -1.57607
H          5.61965         8.27960        -1.98207
O         -8.42219        -3.58280        -2.03174
H         -8.88098        -2.79964        -2.41894
O         -3.03760         6.22413         1.46150
H         -2.52776         6.65777         2.20498
O          6.87804         1.58670         1.67091
H          7.02803         0.73118         2.13551
O         -0.12393        -7.99953         2.05269
H         -0.33065        -7.24645         2.66302
O         10.14760        -2.17340         1.70264
H          9.90923        -1.46547         2.34302
O         -2.03930         0.12359        -1.54401
H         -1.62036         0.53968        -2.33814
O          0.80473         9.35345         2.15235
H         -0.00065         8.77251         2.34536
O         -0.91868        -3.28687         2.64620
H         -0.56403        -2.36984         2.74526
O         -1.97684         3.30983        -2.58456
H         -2.56034         4.05776        -2.86117
O         -2.52537        -6.74278         2.34757
H         -3.42185        -6.57353         2.72384
O          3.70194         0.85016        -2.70144
H          4.60337         0.70928        -3.06801
O         -9.15671         5.32143         1.83415
H         -8.50421         4.76911         2.31495
O         -6.95150         8.32862        -1.70479
H         -6.62888         7.55925        -2.23659
O        -10.26426         1.45843        -2.02228
H         -9.58010         1.93283        -2.54257
O         10.24195        -2.54094        -1.90663
H          9.35866        -2.26139        -2.24450
O          4.17199       -10.09624         2.02191
H          3.77735        -9.43780         2.63783
H         12.24024        -1.12306         0.34684
H         12.13110         1.26584         0.37169
H         10.68917         3.35650         1.21304
H          9.30510         5.51079         1.42924
H          8.03626         7.61841         1.22711
H          7.08542         9.90145         0.66256
H          4.93840        11.00766         0.94225
H          2.53493        10.86692         1.17567
H          0.02098        10.90152        -0.01642
H         -2.31117        10.82830        -0.79019
H         -4.92613        11.31211         0.00634
H         -7.10094        10.24116         0.01520
H         -8.37348         7.85091         0.73162
H         -9.73209         5.73226        -0.10182
H        -10.83788         3.61702        -0.52751
H        -11.77682         1.30788         0.66602
H        -11.74825        -1.13673         0.55512
H        -10.04489        -2.89129         0.87772
H         -9.32478        -5.08166         0.84216
H         -8.12733        -7.85600        -1.32239
H         -7.00083        -9.91671        -0.97102
H         -4.86702       -11.11073        -0.92517
H         -2.45145       -11.17315        -0.18128
H         -0.08808       -11.29958         0.31422
H          2.48612       -11.38533         0.47156
H          4.91148       -11.13183        -0.65785
H          6.96765        -9.89497        -0.97384
H          8.58437        -7.82570        -0.07787
H          9.79999        -5.63271        -0.18436
H         11.01304        -3.46469        -0.23588
