         320
 CSIRO Nanostructure Databank - Neutral Graphene Oxide Data Set
C         30.58120        31.62937         0.99625
C         30.54106        32.87859         0.97188
C         30.49849        36.05987         0.23360
C         30.50952        37.17999        -0.26381
C         30.52224        40.48496        -1.07429
C         30.48743        41.71647        -1.06866
C         32.68699        28.79851        -0.13435
C         31.79717        29.38568         0.50944
C         32.90730        31.50978         0.37435
C         31.68202        30.77471         0.74545
C         32.93416        33.00719         0.78497
C         31.57807        33.79077         0.35499
C         32.91849        36.04891         0.63454
C         31.53275        35.21804         0.89801
C         32.86696        37.57493         0.28193
C         31.62406        38.08364        -0.53649
C         32.84430        40.33883        -0.45117
C         31.61820        39.53056        -0.88721
C         32.83714        41.84579        -0.48204
C         31.64898        42.65252        -1.17909
C         32.68651        44.49305         0.03544
C         31.68532        43.97292        -0.46562
C         35.42055        27.24403        -0.60817
C         35.20099        28.67158        -0.21357
C         33.93547        29.37257        -0.73252
C         35.21751        31.58225        -0.75540
C         33.95382        30.87517        -0.26855
C         35.25849        33.07718        -0.43033
C         34.09524        33.78863         0.19047
C         35.57096        35.99000         0.27836
C         34.21490        35.27519         0.53967
C         35.43646        37.45344        -0.05193
C         34.13391        38.08930        -0.46697
C         35.29490        40.31559        -0.11060
C         34.16031        39.61682        -0.38280
C         35.24352        41.75314         0.39169
C         34.16922        42.59946        -0.33128
C         35.23051        44.65734         0.86003
C         33.99154        43.95606         0.43906
C         35.45915        46.08586         1.09582
C         37.75157        27.14673         0.13248
C         36.48146        26.63328        -0.47523
C         37.81472        28.64995        -0.25516
C         36.53532        29.36926        -0.72377
C         37.76971        31.55695        -0.84443
C         36.52750        30.85752        -0.27967
C         37.82876        33.04895        -0.83559
C         36.62870        33.77065        -0.23589
C         37.89304        35.97183        -0.95003
C         36.50209        35.24924        -0.71168
C         37.85511        37.46296        -0.56455
C         36.59565        38.14658        -0.16248
C         37.82026        40.41042        -0.15801
C         36.58432        39.60335         0.27041
C         37.77152        41.81754         0.45151
C         36.59404        42.49066         0.45136
C         37.77730        44.57836         1.39717
C         36.61928        44.01719         0.53124
C         37.74456        46.02644         1.83048
C         36.51761        46.67932         1.33427
C         40.29695        24.38010        -0.05209
C         39.12558        25.01345        -0.11684
C         40.29370        27.14698         0.20543
C         39.01205        26.37347        -0.11361
C         40.33349        28.59474        -0.53331
C         38.98388        29.31416        -0.38372
C         40.22421        31.48971        -0.12687
C         39.08717        30.75456        -0.90514
C         40.24486        32.99897        -0.27326
C         39.13909        33.74943        -0.56893
C         40.33291        35.92369        -0.36680
C         39.15072        35.23464        -0.50385
C         40.43283        37.42648        -0.55598
C         39.13563        38.21975        -0.44631
C         40.33337        40.42095        -0.00605
C         39.08574        39.58375         0.25457
C         40.29923        41.81867         0.50876
C         39.02526        42.38689         1.10447
C         40.29936        44.57327         1.40167
C         39.10377        43.90476         1.24990
C         40.33730        46.03510         1.72153
C         39.00253        46.75137         2.25216
C         40.19846        48.82204         1.45057
C         39.21462        48.13683         1.75368
C         42.94489        24.40291         0.00633
C         41.57350        24.62209         0.10959
C         42.88340        27.09679         0.24588
C         41.55837        26.51823        -0.32783
C         42.82156        28.65050         0.29435
C         41.54765        29.38441        -0.00218
C         42.82915        31.59630         0.11240
C         41.62074        30.83948        -0.44944
C         42.79625        32.94182         0.24828
C         41.44457        33.68472         0.36524
C         42.66808        35.68444         0.67285
C         41.61006        35.09848        -0.25586
C         43.08827        37.73385        -0.43764
C         41.70244        38.27721        -0.49757
C         42.75302        40.30649         0.43655
C         41.62636        39.68503        -0.01752
C         42.79126        41.75137         0.55508
C         41.56766        42.42084         1.08612
C         42.68923        44.58933         0.59746
C         41.56977        43.92703         1.00807
C         42.88857        46.06019         0.87546
C         41.55462        46.80659         1.23057
C         42.74133        48.83483         0.61823
C         41.34338        48.27535         0.65715
C         44.04005        25.00908        -0.04801
C         45.41775        27.25615        -0.27909
C         44.14247        26.45269        -0.49714
C         45.40687        28.72797         0.11970
C         44.13157        29.41375         0.58304
C         45.32236        31.61419         0.75202
C         44.17780        30.87620         0.04371
C         45.31083        32.96523         0.78079
C         44.13755        33.69527         0.13712
C         45.19528        35.91533         0.64437
C         44.06616        35.17235         0.51602
C         45.26736        37.42698         0.83522
C         43.99708        38.15668         0.49304
C         45.25072        40.25387         0.18768
C         44.01422        39.61580         0.87104
C         45.15527        41.69042        -0.12595
C         43.92924        42.40827         0.18290
C         45.12991        44.56581        -0.35975
C         43.79207        43.86946        -0.17582
C         45.22308        46.09688        -0.13921
C         43.82962        46.73944        -0.17146
C         43.71723        48.19425         0.21652
C         47.78841        27.35071         0.27532
C         46.75844        26.72875        -0.01458
C         47.93362        28.62469         1.06195
C         46.71070        29.50334         0.44396
C         47.84017        31.58144         1.05769
C         46.53714        30.82436         1.27078
C         47.88803        33.06588         1.30769
C         46.51642        33.76378         1.17929
C         47.80220        35.99809         0.72786
C         46.49556        35.24476         0.93330
C         47.78649        37.51116         0.39899
C         46.38968        37.99063        -0.05934
C         47.48849        40.14021        -0.95530
C         46.35103        39.51514        -0.14469
C         47.56788        41.65592        -0.68630
C         46.22010        42.37174        -0.69535
C         47.27511        44.43945        -1.81538
C         46.15982        43.81938        -0.89197
C         47.09575        45.89543        -1.60215
C         46.12498        46.59141        -1.27347
C         50.47633        28.90736         1.57926
C         49.23534        29.39388         0.80762
C         50.39541        31.69121         1.14400
C         49.12663        30.86497         1.38191
C         50.33701        33.04489         0.75418
C         48.99284        33.67848         0.38954
C         50.27356        35.88267        -0.04202
C         49.05031        35.20764         0.48839
C         50.22218        37.30851        -0.45302
C         48.85467        37.96867        -0.63786
C         50.01947        40.25831        -0.72607
C         48.86871        39.50468        -0.69277
C         50.01808        41.64957        -1.20148
C         48.66779        42.28793        -1.56488
C         49.88040        44.24786        -2.14196
C         48.63402        43.87867        -1.38929
C         51.48446        29.63184         1.65969
C         52.74954        31.89944         1.33829
C         51.64668        31.04105         1.45805
C         52.66140        33.11391         0.99575
C         51.51649        33.85140         0.65765
C         52.58813        36.12666         0.10348
C         51.47399        35.23202         0.23443
C         52.62440        37.36947         0.06394
C         51.49255        38.17454        -0.41292
C         52.46158        40.48905        -0.67386
C         51.34291        39.64641        -0.13338
C         52.37861        41.59567        -1.21510
C         51.19077        42.33543        -1.54699
C         50.98554        43.69125        -1.98439
O         51.01615        37.66343        -1.66449
O         38.42680        38.23734        -1.69689
O         40.23240        41.56857        -0.92545
O         45.42672        28.32264        -1.27785
O         32.48963        41.14619         0.72529
O         36.55670        39.57913         1.68522
O         41.10254        37.91344        -1.78575
O         37.58426        32.33454        -2.06899
O         34.38653        43.98436         1.81242
O         37.41714        44.94135         2.76829
O         41.88965        29.10040         1.36547
O         46.33944        34.68244         2.30233
O         48.72786        35.72900         1.83346
O         31.84322        38.52403        -1.88915
O         40.49158        28.44548        -1.89587
O         38.07962        36.05765        -2.43333
O         33.72118        35.76284         1.81881
O         41.11653        33.75215         1.77109
O         41.35406        46.55907         2.63576
O         34.21167        33.69346        -1.25823
O         37.76483        40.61885        -1.57016
H         38.59699        41.07336        -1.84177
O         41.55959        42.10281         2.51296
H         42.28941        41.47177         2.70165
O         44.22771        29.46571         2.02281
H         43.30524        29.52158         2.37321
O         39.06287        46.74320         3.66541
H         38.49123        46.01590         3.99693
O         44.45469        33.65707        -1.29332
H         43.71617        34.12854        -1.75890
O         41.88606        30.83518        -1.85905
H         41.35179        30.09456        -2.25966
O         46.15070        37.44565        -1.37447
H         45.18322        37.44693        -1.56265
O         47.19726        30.00360        -0.81483
H         46.40956        30.29203        -1.34389
O         46.93342        44.13968        -3.15498
H         47.44812        43.34952        -3.45574
O         33.91500        29.27185        -2.13853
H         33.08998        29.66632        -2.48626
O         33.07888        33.06600         2.19553
H         32.22063        32.85368         2.62142
O         48.09434        38.20324         1.62671
H         48.72509        37.63626         2.13306
O         45.55578        37.66309         2.23190
H         46.51452        37.89763         2.32929
O         40.91983        48.11998        -0.67681
H         40.78126        49.00157        -1.07894
O         51.26384        39.77144         1.28019
H         51.18397        40.71864         1.51600
O         36.93992        44.44496        -0.81288
H         36.33803        43.96690        -1.43380
O         35.16151        28.71390         1.20741
H         35.87148        28.11251         1.55361
O         44.56956        30.82060        -1.34906
H         44.48357        31.74300        -1.70090
O         37.51054        27.14168         1.58118
H         37.43425        26.20259         1.86186
O         49.04290        30.66852         2.82542
H         48.77644        31.54066         3.21816
O         42.05981        34.86047        -1.61474
H         41.30808        34.46291        -2.10886
O         36.93100        33.64016         1.16285
H         36.47090        34.32693         1.70356
O         48.02520        41.76157         0.68665
H         48.03759        42.72036         0.92051
O         43.29675        46.59390        -1.48276
H         43.98378        46.89970        -2.11764
O         36.63118        29.29281        -2.14555
H         35.88663        29.79976        -2.55061
O         36.61684        30.94456         1.13961
H         35.98055        30.30205         1.53964
O         34.88398        41.58878         1.77210
H         35.44513        40.82692         2.10505
O         45.89402        46.32558         1.07539
H         45.62257        47.19876         1.42926
O         34.68112        42.91610        -1.63910
H         33.92037        43.11424        -2.23736
O         44.08228        39.86456         2.29012
H         44.60755        39.11614         2.67561
O         31.44966        33.82913        -1.03445
H         31.40134        32.92164        -1.39680
O         43.25416        43.83106        -1.54777
H         43.13022        44.77080        -1.83584
O         48.63784        33.32268        -0.95857
H         49.40898        33.46005        -1.54714
O         48.45747        37.52637        -1.95847
H         49.25146        37.62158        -2.53364
O         49.57352        29.41346        -0.54570
H         49.20152        28.61758        -0.98434
O         48.46299        42.04080        -2.96476
H         48.07254        41.13324        -3.07070
O         34.06562        37.61474        -1.85060
H         34.48224        38.28472        -2.43317
O         31.32281        35.14141         2.28418
H         31.28094        36.04617         2.65652
O         43.67294        46.06872         2.08707
H         43.03798        45.98464         2.84044
O         39.04513        39.28408         1.65209
H         38.83917        40.11034         2.16503
O         32.00930        42.84198        -2.53303
H         31.29600        43.33172        -2.99347
O         48.80753        44.23768        -0.02577
H         49.75677        44.17793         0.20945
O         43.42166        36.88072        -1.45318
H         42.62895        36.84724        -2.05298
O         32.76624        38.25965         1.53482
H         33.44790        37.89966         2.14336
O         38.93515        41.87860         2.47420
H         38.18755        42.33042         2.92242
O         39.95106        31.23078         1.26664
H         40.27003        31.99435         1.80272
O         35.85384        35.25613        -1.99057
H         35.33647        36.09324        -2.08905
O         43.01931        26.69369         1.61197
H         42.23068        27.03313         2.09727
O         47.73019        28.35897         2.41859
H         48.22432        29.02641         2.95573
O         41.42780        26.45844        -1.67194
H         42.30074        26.39406        -2.13715
O         36.25558        36.02483         1.56314
H         35.71079        36.56266         2.17915
O         38.32648        34.73744        -2.95776
H         37.41198        34.40654        -3.15510
O         39.41807        30.63157        -2.28782
H         38.71122        30.09403        -2.71211
O         40.31250        27.28498         1.62018
H         39.39282        27.45723         1.93507
O         43.96327        26.42498        -1.91903
H         44.52109        27.13016        -2.32378
O         48.34084        33.22086         2.67615
H         47.81290        33.96931         3.06004
O         42.27553        36.18024         1.73145
H         41.41864        34.61545         2.15101
O         46.42628        30.65690         2.69006
H         45.58315        30.16676         2.86384
O         47.13399        39.88913        -2.34021
H         47.11989        38.90060        -2.44270
O         35.17636        31.50250        -2.19898
H         34.77195        32.33625        -2.53101
