         487
 CSIRO Nanostructure Databank - Neutral Graphene Oxide Data Set
C         37.57960        49.97589        -0.27000
C         36.37542        50.66767        -0.12772
C         37.58542        52.75626        -0.07552
C         36.38107        52.06166        -0.02601
C         40.12229        48.48694        -0.19477
C         40.10633        49.93731        -0.54409
C         38.80523        50.65615        -0.30001
C         40.07981        52.79663        -0.23138
C         38.81328        52.07322        -0.22164
C         40.10649        54.22424        -0.42587
C         42.53526        48.54033         0.24787
C         41.27190        47.84360         0.09994
C         42.51082        49.98421         0.20579
C         41.32276        50.67015        -0.05736
C         42.53119        52.82722         0.13016
C         41.28972        52.10200        -0.03458
C         42.46848        54.31249         0.22787
C         41.23850        54.95721        -0.25884
C         45.03008        45.77588         0.40096
C         43.82771        46.44053         0.32266
C         44.94359        48.59430         0.98482
C         43.73347        47.85088         0.46790
C         44.95446        50.05055         0.58204
C         43.76096        50.71639         0.35284
C         45.01771        52.90456        -0.03927
C         43.73120        52.15827         0.25119
C         45.06250        54.33204         0.57501
C         43.74148        55.09456         0.46579
C         45.02699        57.21422         0.35486
C         43.82804        56.54861         0.26877
C         47.60592        44.36921         0.35071
C         47.52098        45.75453         0.61695
C         46.26929        46.46458         0.59204
C         47.47550        48.56005         0.94632
C         46.26330        47.87228         0.76828
C         47.48069        50.03753         1.05874
C         46.20897        50.80346         0.80087
C         47.49845        52.91385         0.40206
C         46.29101        52.21338         0.39600
C         47.55136        54.33675         0.28255
C         46.27358        55.09849         0.00672
C         47.52651        57.23087         0.47947
C         46.27970        56.54446         0.41760
C         47.56706        58.64101         0.60179
C         50.00313        44.28232         0.79815
C         48.82614        43.67532         0.38857
C         49.98580        45.71506         1.26785
C         48.71912        46.46766         0.93293
C         49.96483        48.58883         1.50011
C         48.70765        47.85416         1.06011
C         49.93453        50.05717         1.10356
C         48.78253        50.73222         0.87439
C         50.05011        52.92357         0.60664
C         48.79775        52.13407         0.29487
C         50.02911        54.36462         0.44308
C         48.77586        55.06015         0.35453
C         49.99872        57.23432         0.34774
C         48.76861        56.50367         0.38819
C         49.98034        58.66844         0.33000
C         48.76409        59.33798         0.48500
C         52.48996        41.45020         0.73029
C         51.29431        42.14322         0.75745
C         52.47630        44.27489         0.92959
C         51.27379        43.57816         0.83690
C         52.51129        45.76219         1.13060
C         51.20943        46.43683         0.66940
C         52.44707        48.55528         0.95543
C         51.24706        47.90921         1.01503
C         52.50485        50.01280         1.25649
C         51.21725        50.79343         1.20090
C         52.51847        52.90500         0.68672
C         51.21914        52.23444         0.85896
C         52.53052        54.37925         0.42406
C         51.24081        55.11627         0.43039
C         52.53841        57.26015         0.08093
C         51.23732        56.51326         0.32782
C         52.47270        58.72237         0.56909
C         51.24464        59.43419        -0.00835
C         52.47094        61.55199         0.30262
C         51.29420        60.89676         0.37077
C         55.02336        39.98881         0.78528
C         54.96765        41.40415         0.65581
C         53.73335        42.10717         0.78788
C         54.96019        44.27670         0.42970
C         53.79444        43.57398         1.10333
C         54.89559        45.71659         0.20164
C         53.69909        46.43183         0.47440
C         54.80726        48.57340         0.10637
C         53.67327        47.86591         0.48687
C         54.96982        49.99450         0.45810
C         53.81409        50.72101         1.06856
C         55.08373        52.94918         0.75376
C         53.80147        52.22817         1.08087
C         55.07268        54.40928         0.57254
C         53.78770        55.11508         0.77906
C         55.04135        57.34221         0.58203
C         53.74659        56.59975         0.71761
C         54.98021        58.76182         0.17028
C         53.75686        59.46124         0.21911
C         54.93061        61.54872        -0.30665
C         53.72803        60.85412         0.03587
C         54.94709        62.96020        -0.53489
C         57.43123        40.00719         0.43101
C         56.21815        39.31641         0.69438
C         57.39306        41.41590         0.23641
C         56.16452        42.12508         0.36353
C         57.26962        44.21500        -0.56463
C         56.09889        43.55602         0.13214
C         57.29488        45.72597        -0.42842
C         56.05599        46.41435        -0.21745
C         57.24729        48.63697        -0.56917
C         55.93401        47.87670        -0.61038
C         57.30604        49.99673        -0.44123
C         56.03132        50.79307        -0.27140
C         57.38948        52.89624        -0.14710
C         56.24305        52.20229         0.24699
C         57.43912        54.34096        -0.08039
C         56.24751        55.07117         0.26746
C         57.44487        57.24957        -0.29493
C         56.30853        56.55246         0.33398
C         57.38292        58.66209        -0.43379
C         56.17361        59.42070        -0.19017
C         57.36858        61.52309        -0.76323
C         56.15162        60.82450        -0.45304
C         57.36508        62.94010        -0.87755
C         56.11526        63.62785        -0.80498
C         59.93200        37.19200         0.33070
C         58.74254        37.87729         0.47667
C         59.88618        39.98915         0.06914
C         58.68134        39.28574         0.33453
C         59.85555        41.43817        -0.06318
C         58.61913        42.13573        -0.03253
C         59.78557        44.22786        -0.52328
C         58.59644        43.53598        -0.28536
C         59.72924        45.64412        -1.04968
C         58.47384        46.40523        -0.66676
C         59.75507        48.59755        -0.89304
C         58.44418        47.86518        -1.07182
C         59.74937        49.99382        -0.88794
C         58.54376        50.74288        -0.65358
C         59.79462        52.89688        -0.79009
C         58.56310        52.15033        -0.58384
C         59.77171        54.33167        -0.83426
C         58.61054        55.04645        -0.49278
C         59.70390        57.18107        -1.22283
C         58.60246        56.50215        -0.63174
C         59.49220        58.52344        -1.55661
C         58.49066        59.34258        -1.00388
C         59.82880        61.48392        -0.91272
C         58.58653        60.79581        -0.97262
C         59.82631        62.91951        -0.75373
C         58.61636        63.64016        -0.96573
C         59.88144        65.72982        -1.25740
C         58.68845        65.04757        -1.21881
C         62.42836        35.73263        -0.10524
C         62.39509        37.14646        -0.15878
C         61.13190        37.87058        -0.00001
C         62.30789        40.02106        -0.60379
C         61.09245        39.27154        -0.11614
C         62.35540        41.42066        -0.00860
C         61.05806        42.16084        -0.22897
C         62.28843        44.28641        -0.56425
C         61.03768        43.54823        -0.44919
C         62.25271        45.70024        -0.63394
C         60.99784        46.43222        -0.79582
C         62.29963        48.54511        -0.98274
C         60.96929        47.81970        -0.85113
C         62.20743        50.02817        -0.64362
C         61.01823        50.75034        -1.22400
C         62.26210        52.95658        -0.79154
C         61.01691        52.22274        -0.90446
C         62.26889        54.34096        -0.96423
C         61.00790        55.02857        -1.27596
C         62.36080        57.25281        -1.38801
C         61.02359        56.51833        -1.51066
C         62.43262        58.70736        -1.43676
C         61.36255        59.56313        -1.72467
C         62.19179        61.21314        -0.22983
C         61.12470        60.78778        -1.01117
C         62.13560        63.19556         0.18609
C         61.01696        63.71166        -0.50796
C         62.37046        65.74910        -0.77160
C         61.09731        65.08916        -0.86201
C         62.49640        67.16579        -1.02582
C         64.86251        35.70623        -0.23504
C         63.61852        35.03232        -0.15555
C         64.85645        37.12738        -0.30675
C         63.61783        37.84949        -0.30785
C         64.79458        40.01312        -0.49809
C         63.61942        39.29113        -0.39924
C         64.80191        41.47157        -0.52074
C         63.59495        42.17213        -0.43007
C         64.77473        44.32554        -0.50746
C         63.54598        43.59945        -0.50211
C         64.71421        45.74428        -0.45019
C         63.48160        46.40105        -0.48308
C         64.70197        48.59672        -0.27938
C         63.38040        47.86234        -0.13608
C         64.73326        50.07403        -0.33865
C         63.43781        50.80488        -0.32917
C         64.73279        52.90887        -0.42089
C         63.49796        52.26203        -0.52636
C         64.75059        54.38603        -0.38186
C         63.47768        55.13604        -0.69785
C         64.91699        57.23614        -1.14582
C         63.52704        56.57081        -1.08141
C         64.90450        58.69953        -0.76128
C         63.67147        59.40326        -1.08149
C         64.72739        61.47175         0.12207
C         63.56393        60.85211        -0.52536
C         64.56556        62.87101         0.72988
C         63.43317        63.72567         0.12119
C         64.89204        65.65770        -0.65619
C         63.53870        65.03238        -0.39674
C         64.91456        67.17971        -0.57850
C         63.67121        67.84615        -0.86699
C         67.36593        32.89571        -0.38320
C         66.16768        33.57381        -0.30296
C         67.34117        35.71817        -0.28861
C         66.11871        34.99339        -0.26916
C         67.31487        37.14546        -0.38058
C         66.10121        37.82682        -0.42998
C         67.36431        40.07321        -0.59074
C         66.06754        39.28504        -0.67175
C         67.29117        41.52081        -0.33568
C         66.05377        42.19682        -0.46228
C         67.25021        44.31544        -0.14529
C         66.03357        43.62516        -0.38704
C         67.28569        45.78726        -0.19235
C         65.97785        46.51129        -0.33612
C         67.06567        48.62634         0.72174
C         65.93008        47.90133         0.07026
C         67.14709        50.09391         0.32964
C         65.97885        50.80859        -0.03279
C         67.28589        52.90339        -0.31009
C         65.96029        52.20029        -0.19744
C         67.22315        54.38725        -0.05466
C         66.05237        55.09813        -0.36105
C         67.26262        57.20160        -0.22250
C         66.06011        56.50469        -0.46371
C         67.35830        58.69683        -0.50089
C         66.01716        59.40003        -0.35651
C         67.16306        61.47023         0.54245
C         65.93658        60.79680         0.09024
C         67.14191        62.86175         0.79548
C         65.88231        63.62866         0.71348
C         67.34292        65.61654         0.05007
C         65.97937        65.03931         0.20876
C         67.38984        67.13710        -0.19183
C         66.10513        67.86108        -0.37106
C         67.33027        69.97376        -0.00719
C         66.20210        69.30988        -0.34687
C         69.92855        31.47138        -0.60237
C         69.87195        32.87758        -0.43098
C         68.60743        33.58297        -0.37188
C         69.82397        35.70945        -0.13390
C         68.59557        35.00187        -0.27874
C         69.73391        37.17964         0.20678
C         68.63457        37.87273        -0.59389
C         69.74114        40.04104         0.08936
C         68.59371        39.35212        -0.26242
C         69.71893        41.49323         0.19456
C         68.48406        42.20639         0.00113
C         69.67129        44.35798         0.41045
C         68.46044        43.63257         0.10212
C         69.65373        45.79046         0.56419
C         68.44730        46.51596         0.36933
C         69.55884        48.60448         0.98174
C         68.39118        47.89901         0.61832
C         69.45717        50.07849         1.33710
C         68.34139        50.80507         0.61063
C         69.58979        52.93519         0.74283
C         68.40790        52.19076         0.41278
C         69.60378        54.33404         0.62353
C         68.42498        55.07959         0.22381
C         69.74465        57.23709         0.00702
C         68.43171        56.49609         0.11201
C         69.64333        58.67256         0.47314
C         68.50001        59.37163         0.23664
C         69.57895        61.47635         0.99843
C         68.40420        60.78801         0.58726
C         69.53824        62.84151         1.27956
C         68.34590        63.56860         1.03291
C         69.67928        65.66814         0.84132
C         68.45306        64.98290         0.75295
C         69.74151        67.08943         0.56225
C         68.58846        67.82245         0.25614
C         69.88494        69.94697         0.14627
C         68.56487        69.30604         0.54462
C         69.96506        71.27956        -0.27539
C         72.34412        31.52293        -0.57031
C         71.13997        30.80453        -0.67094
C         72.31851        32.89697        -0.39971
C         71.09317        33.60482        -0.32428
C         72.25786        35.80464         0.07053
C         71.05322        35.04136        -0.12518
C         72.25019        37.17382         0.19864
C         71.04591        37.93028         0.16324
C         72.18684        40.11423         0.45721
C         71.00709        39.33032         0.24304
C         72.13549        41.47509         0.58179
C         70.90380        42.20471         0.46203
C         72.05401        44.38318         0.93797
C         70.87895        43.64718         0.59793
C         72.03458        45.74699         1.10480
C         70.83532        46.49800         0.93246
C         71.96712        48.68079         1.44843
C         70.78471        47.92224         1.11640
C         71.96262        50.04684         1.50290
C         70.77387        50.81914         1.27887
C         72.01797        52.96459         1.31280
C         70.79318        52.20528         1.13362
C         72.03695        54.31541         1.28025
C         70.81297        55.08201         1.01600
C         72.17732        57.28069         0.56894
C         70.89151        56.54449         0.71844
C         72.14158        58.60919         0.72664
C         70.85790        59.29483         1.16081
C         72.02195        61.50193         1.60297
C         70.92556        60.79832         0.84635
C         71.94168        62.77470         2.00191
C         70.68123        63.59334         1.91471
C         72.02553        65.70529         1.49038
C         70.84761        64.99819         1.34841
C         72.11095        67.07884         1.14440
C         71.00200        67.78249         0.70802
C         72.30798        69.79172        -0.01979
C         71.07283        69.18980         0.28885
C         72.37108        71.11603        -0.44752
C         71.19817        71.86258        -0.57599
O         55.97689        57.09288         1.66986
O         46.72651        50.57026         2.21077
O         60.33371        59.08523        -2.52583
O         65.73883        64.79149         1.62667
O         70.55207        56.14482         2.07851
O         42.84710        54.76986         1.60335
O         64.89645        49.29822        -1.58945
O         61.94399        61.99293         0.90121
O         53.57943        55.93666         1.99642
O         66.78878        39.67433        -1.90714
O         54.88898        50.19678         1.90778
O         52.67053        53.45542        -0.69746
O         54.57283        52.72581         2.19345
O         62.48132        50.39072         0.74293
O         60.96342        55.60775        -2.65980
O         66.89893        46.31708        -1.51672
O         63.83618        60.58449        -1.93841
O         40.26109        49.89383        -2.11162
O         51.86339        50.44917         2.50541
O         63.91373        54.92260         0.71976
O         52.30148        58.71620         1.99861
H         52.97011        58.11995         2.40036
O         57.07681        44.00958        -2.02186
H         56.91194        43.05156        -2.15964
O         52.83148        57.21672        -1.33631
H         52.23974        57.86995        -1.78412
O         51.09553        46.30122        -0.76583
H         51.88668        46.71052        -1.17747
O         50.08772        45.68278         2.71018
H         50.12844        46.61919         3.03289
O         69.28908        37.24499         1.60350
H         69.97120        36.80357         2.15187
O         67.69900        58.78091        -1.93186
H         66.98087        58.29962        -2.41708
O         65.21358        65.29404        -2.02972
H         66.11921        65.64865        -2.21460
O         58.25979        47.81306        -2.54891
H         58.85630        47.08084        -2.86820
O         68.93717        37.78686        -2.00954
H         68.25983        38.33553        -2.47137
O         52.67541        46.01662         2.55366
H         53.35620        45.37448         2.87641
O         55.47083        50.98202        -1.61323
H         56.18804        51.29085        -2.20594
O         71.26875        60.91174        -0.56527
H         70.58885        60.42409        -1.07867
O         61.16533        50.66209        -2.68740
H         60.38581        51.09490        -3.09635
O         70.70609        59.12523         2.58670
H         70.64840        58.16034         2.76954
O         49.99458        48.50367         2.95733
H         50.72572        49.10358         3.25325
O         70.24566        63.81930         3.29985
H         70.94306        64.34162         3.74923
O         44.99915        52.91213        -1.49146
H         45.69671        53.52956        -1.81772
O         63.00049        47.86895         1.25674
H         62.79871        48.80458         1.51174
O         64.23963        62.65723         2.12333
H         64.45757        63.49075         2.59718
O         65.30508        57.22351        -2.57244
H         64.59757        57.68463        -3.07435
O         45.34350        54.17671         1.97830
H         44.47709        54.14751         2.44700
O         62.66677        48.39827        -2.36779
H         62.14018        49.04645        -2.89142
O         69.05251        50.08892         2.76695
H         69.02212        51.02676         3.05568
O         40.19771        51.23352        -2.60872
H         39.23783        51.36401        -2.80588
O         70.07657        57.27050        -1.41102
H         69.34187        57.75778        -1.86438
O         51.34443        59.39983        -1.47392
H         50.56239        59.86655        -1.83662
O         55.55748        47.84152        -2.03683
H         56.40029        47.69893        -2.54014
O         62.15349        40.17923        -2.04427
H         62.19829        39.29025        -2.45404
O         54.09667        43.66110         2.57586
H         53.45321        43.07350         3.02921
O         67.65317        66.14393        -1.27323
O         66.74504        48.63048         2.16591
H         67.49758        49.09538         2.61927
O         46.16056        55.19189        -1.46567
H         46.90596        55.74915        -1.77598
O         68.47733        69.46559         2.00427
H         67.64471        69.04167         2.30117
O         59.62202        45.48343        -2.52331
H         58.84395        44.88897        -2.66893
O         44.77144        48.62324         2.45067
H         45.46915        49.23648         2.79481
O         62.48276        41.24441         1.43703
H         62.48025        42.13241         1.85198
O         67.63482        52.81448        -1.75316
H         67.65539        51.86167        -1.98863
O         48.90979        51.88603        -1.16242
H         49.16177        52.73264        -1.58981
H         37.54770        48.88176        -0.35898
H         35.42694        50.11439        -0.09707
H         37.57271        53.85043         0.01881
H         35.43652        52.60987         0.09411
H         39.19181        47.90748        -0.26962
H         39.18500        54.73510        -0.73932
H         41.23473        46.76389         0.30132
H         41.21866        56.04657        -0.40041
H         45.03057        44.68573         0.27134
H         42.92721        45.85705         0.08565
H         44.99954        58.31336         0.36555
H         42.89369        57.12599         0.23046
H         46.70872        43.80937         0.05508
H         46.63901        59.21075         0.73479
H         48.82560        42.62338         0.06980
H         48.73408        60.43576         0.51284
H         52.45758        40.35894         0.60412
H         50.35221        41.58306         0.71068
H         52.49990        62.63341         0.50061
H         50.37472        61.45274         0.60311
H         54.11002        39.42320         1.01164
H         54.01027        63.53032        -0.47199
H         56.22015        38.22891         0.83941
H         56.08615        64.71835        -0.93330
H         59.92678        36.10256         0.46390
H         57.83719        37.30138         0.70701
H         59.88103        66.79123        -1.53965
H         57.76532        65.59295        -1.45891
H         61.49382        35.16270        -0.02343
H         61.59474        67.73584        -1.28867
H         63.58365        33.93601        -0.11168
H         63.66555        68.93789        -0.99272
H         67.34319        31.79908        -0.43303
H         65.23697        32.99134        -0.29123
H         67.29664        71.07291         0.01131
H         65.31501        69.89555        -0.62875
H         69.00153        30.88981        -0.69405
H         69.05519        71.88689        -0.37593
H         73.30538        30.99395        -0.63005
H         71.16101        29.71467        -0.80927
H         73.27261        33.43612        -0.33095
H         73.22635        35.28821         0.09259
H         73.21522        37.69248         0.28881
H         73.15891        39.61252         0.55614
H         73.07253        42.01594         0.76617
H         73.00512        43.85708         1.09037
H         72.96784        46.25484         1.38155
H         72.91802        48.15545         1.60668
H         72.91867        50.55942         1.67565
H         72.95251        52.43013         1.52779
H         72.96644        54.86518         1.48453
H         73.10185        56.75245         0.29094
H         73.05073        59.21350         0.59196
H         72.95767        60.94580         1.76911
H         72.79202        63.22162         2.54242
H         72.92918        65.20634         1.86892
H         73.08191        67.58141         1.25337
H         73.23765        69.21181         0.06405
H         73.34305        71.56953        -0.68649
H         71.24178        72.90774        -0.91220
