         324
 CSIRO Nanostructure Databank - Neutral Graphene Oxide Data Set
C          1.62119         3.77241        -2.06642
C          0.50513         4.52813        -2.25081
C          1.24566         6.20579        -0.64381
C          0.35362         5.79307        -1.57643
C          1.15026         7.57078         0.01353
C         -0.12002         8.34935        -0.23988
C          1.01784        10.48687        -0.85664
C         -0.17297         9.66711        -0.49571
C          1.05836        11.95437        -0.68368
C         -0.10557        12.65270        -0.28007
C          1.05648        14.80380        -0.42337
C         -0.10952        14.02456        -0.16886
C          1.03757        16.21443        -0.21026
C         -0.06843        16.89520         0.39532
C          1.22153        18.97440         0.73333
C         -0.03254        18.20309         0.79451
C          1.35109        20.42590         1.17940
C          0.16917        21.17268         1.62909
C          1.38522        23.29960         1.54315
C          0.17794        22.52978         1.72802
C          1.39431        24.75688         1.71496
C          0.19578        25.49566         1.91056
C          1.40704        27.61706         1.87862
C          0.20674        26.87738         2.00922
C          1.41947        29.05326         1.93364
C          3.84708         3.40202        -1.25626
C          2.69590         4.16112        -1.17634
C          3.67502         6.25893        -0.08267
C          2.44464         5.35570        -0.22837
C          3.60862         7.68936        -0.23298
C          2.40532         8.34336        -0.36210
C          3.58236        10.54558        -0.74470
C          2.37677         9.75514        -0.76539
C          3.52657        11.95885        -1.14531
C          2.24904        12.69011        -0.92312
C          3.51721        14.83847        -0.90418
C          2.26728        14.10624        -0.78969
C          3.48835        16.31428        -1.00130
C          2.17491        17.02741        -0.66340
C          3.46118        19.28344        -0.52064
C          2.21309        18.49007        -0.28669
C          3.64819        20.60468         0.15490
C          2.54306        21.22260         0.79152
C          3.85233        23.29143         1.22739
C          2.55233        22.60241         1.17803
C          3.88214        24.76651         1.52484
C          2.60429        25.49100         1.64038
C          3.84254        27.67262         1.45698
C          2.62717        26.91254         1.67734
C          3.82437        29.10799         1.48872
C          2.57319        29.76792         1.75748
C          6.36878         3.44896        -0.91533
C          5.07459         3.65575        -0.53609
C          6.17533         6.34943        -0.00563
C          4.89862         5.70665         0.21008
C          6.16893         7.74198        -0.15253
C          4.87295         8.44228        -0.09172
C          6.13091        10.58253        -0.83398
C          4.84656         9.92797        -0.35226
C          6.03955        12.06663        -0.46246
C          4.82854        12.74158        -1.10314
C          6.00582        14.95174        -1.13085
C          4.74241        14.20473        -0.96901
C          5.98114        16.42943        -1.01315
C          4.75413        17.07876        -0.96388
C          5.98669        19.31045        -1.08362
C          4.67655        18.55911        -1.04987
C          6.03331        20.71616        -0.61308
C          4.87818        21.29264        -0.04294
C          6.12496        23.48221         0.04060
C          5.02469        22.62726         0.57097
C          6.18060        24.92930         0.38038
C          5.11079        25.55947         1.20289
C          6.24100        27.74249         0.85960
C          5.05028        27.02943         1.13562
C          6.23600        29.17450         0.96054
C          5.00914        29.82612         1.26338
C          8.73143         3.56209        -0.22002
C          7.49399         4.19411        -0.32539
C          8.62072         6.36460         0.07638
C          7.41123         5.61096        -0.05171
C          8.60169         7.80914         0.07390
C          7.38443         8.49688        -0.15052
C          8.53866        10.67217        -0.09212
C          7.37409         9.92272        -0.27553
C          8.53203        12.12675        -0.27868
C          7.36181        12.77973        -0.61277
C          8.54320        14.99757        -0.64117
C          7.34616        14.21502        -0.93564
C          8.50690        16.41513        -0.85156
C          7.24061        17.13497        -1.03543
C          8.45546        19.28884        -1.07906
C          7.24603        18.54166        -1.03325
C          8.47369        20.68923        -1.03912
C          7.28557        21.40638        -0.68741
C          8.54621        23.54256        -0.41253
C          7.36819        22.80733        -0.36824
C          8.61651        24.94664        -0.07633
C          7.46381        25.64556         0.29631
C          8.66767        27.77633         0.36175
C          7.46216        27.05362         0.52885
C          8.66882        29.21028         0.51668
C          7.45386        29.87993         0.78403
C         11.10670         3.57744         0.50852
C          9.91056         4.27098         0.13855
C         11.09251         6.46043         0.36334
C          9.86110         5.68818         0.17060
C         11.01867         7.91700         0.57785
C          9.79674         8.57605         0.27917
C         10.97482        10.73780         0.42790
C          9.76782         9.99991         0.22140
C         10.93168        12.18588         0.29649
C          9.77599        12.86352        -0.09382
C         10.94181        15.05869        -0.17310
C          9.75900        14.32209        -0.27608
C         10.94196        16.56302        -0.20410
C          9.70350        17.13004        -0.83316
C         11.00852        19.25879        -1.36125
C          9.70642        18.53542        -1.25648
C         11.05112        20.73072        -1.26565
C          9.74090        21.43325        -1.25431
C         11.09487        23.47433        -0.45996
C          9.77117        22.90000        -0.91975
C         11.08103        24.98171        -0.40162
C          9.87375        25.65934        -0.15357
C         11.10807        27.78640         0.00947
C          9.87937        27.08021         0.05635
C         11.11617        29.22137         0.19243
C          9.90295        29.90376         0.40321
C         13.40897         3.58076         1.39410
C         12.25325         4.25063         0.91928
C         13.33031         6.40800         1.69798
C         12.33518         5.72644         0.77030
C         13.35099         7.98728         1.66239
C         12.16616         8.64142         0.93433
C         13.40607        10.80606         1.26056
C         12.15421        10.05375         0.82214
C         13.45541        12.21582         0.68448
C         12.15594        12.94519         0.63996
C         13.46819        15.15183         0.17331
C         12.15832        14.43545         0.35683
C         13.49575        16.49333        -0.48293
C         12.24200        17.20560        -0.67555
C         13.49268        19.23018        -1.44303
C         12.25213        18.50628        -1.10497
C         13.51709        20.70175        -1.32404
C         12.25507        21.40631        -1.24975
C         13.58120        23.53757        -0.85711
C         12.26884        22.92682        -1.29832
C         13.56732        24.95192        -0.51640
C         12.32219        25.66497        -0.38679
C         13.57519        27.76987        -0.04621
C         12.33193        27.07999        -0.16516
C         13.58005        29.21863         0.05663
C         12.35783        29.90810         0.14878
C         15.81573         3.55212         1.87492
C         14.62133         4.26279         1.59922
C         15.86426         6.36858         1.37611
C         14.67058         5.72013         1.50846
C         15.95081         7.85013         1.35008
C         14.66942         8.62157         1.19762
C         15.97178        10.69485         0.88282
C         14.68133         9.97534         1.04879
C         15.92589        12.14070         0.50030
C         14.62354        12.85551         0.41856
C         15.97281        14.91483        -0.33202
C         14.71946        14.32481         0.19557
C         15.97080        16.28988        -0.93662
C         14.70258        17.08181        -0.77254
C         16.02536        19.25810        -1.10962
C         14.78735        18.47224        -1.26880
C         15.99953        20.63275        -1.22821
C         14.74203        21.37796        -1.25649
C         16.04205        23.54145        -0.88282
C         14.74876        22.81210        -0.99378
C         16.02318        24.85226        -0.15700
C         14.76691        25.64067        -0.24083
C         16.03887        27.75937         0.29867
C         14.77684        27.03362         0.00952
C         16.04866        29.22220         0.05558
C         14.81652        29.90827         0.01627
C         18.27462         3.48894         2.02238
C         17.06215         4.17646         1.77323
C         18.47323         6.26658         1.21143
C         17.10453         5.56780         1.27669
C         18.57158         7.72895         1.05015
C         17.28937         8.51263         1.03446
C         18.19139        10.51404        -0.16779
C         17.18989         9.90688         0.51373
C         18.30647        11.95727        -0.46314
C         17.07765        12.76015        -0.22859
C         18.44525        14.85993        -0.57073
C         17.15263        14.23371        -0.30496
C         18.50383        16.27542        -0.63971
C         17.23233        17.03853        -0.54710
C         18.57764        19.15615        -0.93281
C         17.26718        18.52806        -0.74783
C         18.60720        20.59922        -1.21017
C         17.30551        21.35476        -1.34518
C         18.62077        23.43159        -0.61323
C         17.34283        22.83101        -1.07121
C         18.62803        24.80397        -0.09779
C         17.32709        25.51726         0.15793
C         18.59380        27.76289        -0.02851
C         17.36439        27.01550         0.33606
C         18.52238        29.18551        -0.12075
C         17.27424        29.88085        -0.03739
C         19.50418         4.13674         2.00713
C         20.85697         6.19598         1.89726
C         19.63113         5.50996         1.71084
C         20.97332         7.53089         1.56790
C         19.85059         8.29853         1.12589
C         20.75314        10.73653         0.99699
C         20.05766         9.64269         0.57129
C         20.66028        12.06131         0.40714
C         19.61957        12.64104        -0.28882
C         20.86351        14.78939        -0.70017
C         19.64235        14.09327        -0.55552
C         20.91224        16.17569        -0.78021
C         19.73649        16.96013        -0.71804
C         20.99474        19.15784        -0.80518
C         19.76575        18.42921        -0.81056
C         21.02673        20.55315        -0.80742
C         19.86422        21.32502        -0.95076
C         21.05405        23.54135        -0.89798
C         19.83849        22.76099        -0.78908
C         21.06571        24.89780        -0.80059
C         19.92523        25.61771        -0.21822
C         20.96671        27.87345        -0.55737
C         19.82309        27.10824        -0.27883
C         20.90802        29.27266        -0.59507
C         19.70285        29.92405        -0.38748
O         13.21961         8.41169         3.01269
O         17.12635        17.89713         0.61768
O          1.76644        19.28092         2.05621
O         11.95912        13.91730         1.72235
O          4.86829        22.57649         2.02324
O         16.77592         8.41105         2.42637
O         12.21059         6.16113        -0.60243
O         19.29644         9.77376        -0.60849
O         19.51732        25.01738         1.04965
O          4.88501        25.06896         2.56227
O         16.25933        11.74444         1.87803
O          5.65489        24.48720        -0.93460
O         17.82190         5.67841         0.00738
O          4.90265         4.38354         0.66845
O          5.19436        19.10231        -2.30581
O          2.56539        16.78729        -2.04200
O          4.31537        12.26012        -2.38248
O         16.57241        24.81093         1.20168
O         14.19268        18.66821        -2.61041
O         16.74372        23.63076        -2.17572
O          6.78262        14.49149        -2.28371
O          9.65625        22.47940        -2.31201
O         18.02336        20.97095        -2.55736
O          4.85304         9.42180         1.02860
O          1.63864         9.99581        -2.06784
O         17.41004        12.27810        -1.59138
O         14.28347        15.11267         1.38250
O         16.70916        27.43209         1.56855
O         10.33810        18.76907        -2.59455
O          2.32050        19.35160        -1.45738
O          2.14987         4.80613         1.08973
H          2.97599         4.36146         1.39395
O         16.06161        16.07096        -2.38707
H         15.60387        16.80611        -2.85160
O         12.12404        23.35043        -2.67121
H         11.26256        22.99403        -3.00314
O          5.72823        12.14777         0.96202
H          6.30669        11.51892         1.44545
O         10.83992        16.95693         1.22782
H         11.35217        16.30564         1.75841
O         11.25409        22.99137         0.90499
H         11.99454        23.48113         1.32167
O         13.27249        11.01022         2.68334
H         13.27630        10.08918         3.08968
O         12.88313         6.00943         3.01439
H         12.96155         6.84784         3.56018
O          1.18238         7.38782         1.45708
H          1.53000         6.48195         1.64749
O          6.21881        10.40628        -2.26173
H          5.53259        10.98194        -2.68700
H          1.74787         2.83837        -2.63473
H         -0.27654         4.20268        -2.95045
H         -0.49944         6.43395        -1.84452
H         -1.06015         7.82137        -0.01548
H         -1.15799        10.15736        -0.53854
H         -1.03289        12.09896        -0.08267
H         -1.04940        14.52057         0.10387
H         -0.99593        16.33570         0.57957
H         -0.90409        18.63450         1.30559
H         -0.74283        20.61384         1.88042
H         -0.74187        23.03956         2.04480
H         -0.76662        24.97248         1.98729
H         -0.73783        27.41721         2.16944
H          0.46948        29.57686         2.11616
H          3.87406         2.60825        -2.02138
H          2.55489        30.86683         1.79901
H          6.59389         2.78687        -1.76516
H          4.98996        30.92480         1.32404
H          8.79949         2.47886        -0.39765
H          7.45750        30.97589         0.88323
H         11.07801         2.47821         0.56070
H          9.91599        30.99759         0.52215
H         13.39423         2.48256         1.47596
H         12.36604        31.00479         0.23689
H         15.76435         2.47872         2.11288
H         14.81680        31.00731        -0.03685
H         18.22734         2.42684         2.30335
H         17.28429        30.97588        -0.14592
H         20.40847         3.57922         2.29146
H         21.73074         5.63905         2.26441
H         21.94553         8.03617         1.65314
H         21.41856        10.63791         1.86714
H         21.49879        12.72533         0.67312
H         21.80587        14.22553        -0.74575
H         21.89244        16.65924        -0.88952
H         21.94546        18.61773        -0.70583
H         21.99542        21.05340        -0.66740
H         21.95982        23.02816        -1.25060
H         21.96410        25.45227        -1.10478
H         21.93322        27.37925        -0.72127
H         21.82102        29.84878        -0.79794
H         19.64704        31.02058        -0.43920
