         598
 CSIRO Nanostructure Databank - Neutral Graphene Oxide Data Set
C         22.95404        69.92767        -0.19843
C         22.94345        71.33594        -0.06255
C         21.73011        72.07639        -0.10813
C         22.92907        74.16468         0.18926
C         21.73471        73.46498         0.01709
C         25.40867        65.66549        -0.78415
C         25.36233        67.03149        -0.42104
C         24.18062        67.77938        -0.37058
C         25.37563        69.91419         0.08603
C         24.16082        69.19779        -0.14134
C         25.40265        71.32878         0.17059
C         24.17698        72.04497         0.11099
C         25.39137        74.16415         0.40779
C         24.16964        73.47357         0.23899
C         27.91169        61.41897        -1.03075
C         27.91213        62.82774        -1.00590
C         26.68473        63.56895        -1.04154
C         27.89024        65.71375        -0.83628
C         26.63773        64.96433        -0.90434
C         27.90079        67.02070        -0.43508
C         26.63545        67.68378        -0.04642
C         27.91467        69.93211        -0.08481
C         26.63194        69.17144         0.23524
C         27.89321        71.37926         0.36261
C         26.64696        72.05146         0.34067
C         27.85830        74.18716         0.57855
C         26.62582        73.47952         0.45112
C         30.33332        57.09383        -1.01422
C         30.31557        58.51996        -0.98422
C         29.12176        59.26274        -1.03570
C         30.36738        61.39536        -0.90091
C         29.12021        60.68403        -0.99380
C         30.38474        62.82860        -0.88097
C         29.16298        63.52088        -0.94647
C         30.47039        65.73200        -1.07875
C         29.16180        64.98810        -1.10854
C         30.42467        67.25066        -0.90248
C         29.18520        67.71242        -0.14409
C         30.44209        69.90543         0.35878
C         29.15901        69.13484         0.29362
C         30.40017        71.39781         0.49862
C         29.09365        72.10420         0.47166
C         30.35299        74.32318         0.78010
C         29.07700        73.52088         0.59267
C         32.77356        52.77616        -0.98524
C         32.72839        54.17420        -0.88941
C         31.53610        54.93010        -0.98364
C         32.78987        57.07427        -0.86793
C         31.52814        56.35219        -0.95127
C         32.78053        58.50233        -0.81207
C         31.56464        59.23381        -0.87898
C         32.82347        61.35917        -0.67978
C         31.57974        60.65650        -0.83819
C         32.83062        62.79726        -0.63916
C         31.65449        63.53892        -0.77297
C         32.90453        65.69792        -0.55193
C         31.71827        64.99177        -0.77706
C         32.94756        67.15722        -0.45366
C         31.70306        67.88983        -0.40245
C         32.90287        70.03607        -0.18541
C         31.68512        69.22702        -0.06715
C         32.87970        71.47929         0.18484
C         31.65222        72.17175         0.32014
C         32.86214        74.25225         0.63702
C         31.64872        73.56785         0.53996
C         35.21004        48.43393        -1.23378
C         35.21467        49.88463        -1.26124
C         34.01239        50.61601        -1.13754
C         35.24502        52.72447        -1.14478
C         34.00336        52.03482        -1.07307
C         35.29418        54.17292        -0.88565
C         33.99728        54.91195        -0.70387
C         35.25703        57.07759        -0.77899
C         34.00949        56.38175        -0.83274
C         35.23578        58.46915        -0.62131
C         34.01175        59.19787        -0.62578
C         35.23273        61.28860        -0.05251
C         34.00936        60.61704        -0.52757
C         35.37196        62.74458        -0.25559
C         34.12143        63.51491        -0.56070
C         35.33610        65.59757        -0.05488
C         34.14301        64.97550        -0.34957
C         35.42516        67.06845        -0.16733
C         34.15679        67.81829        -0.25535
C         35.55244        70.05048        -0.15671
C         34.22722        69.28721        -0.34950
C         35.32783        71.36245         0.58760
C         34.09008        72.15372         0.38365
C         35.32846        74.24237         0.90830
C         34.10562        73.55974         0.63651
C         37.62371        44.10209        -0.65901
C         37.54899        45.49338        -0.82346
C         36.37638        46.23222        -1.12341
C         37.66173        48.34706        -1.51983
C         36.36492        47.65639        -1.28288
C         37.69442        49.85314        -1.58708
C         36.44080        50.60207        -1.37013
C         37.71330        52.76244        -1.20520
C         36.47425        52.02647        -1.29745
C         37.77827        54.18553        -1.16225
C         36.49619        54.94728        -1.39628
C         37.74347        57.03150        -0.88411
C         36.53854        56.38089        -0.92302
C         37.81037        58.49058        -0.72505
C         36.51022        59.20680        -0.57986
C         37.80905        61.24589         0.21917
C         36.52157        60.54061         0.05542
C         37.75344        62.66988         0.52094
C         36.57933        63.38792         0.29809
C         37.76793        65.54498         0.90180
C         36.49805        64.84071         0.48978
C         37.93296        66.99192         0.54486
C         36.71561        67.78549         0.13719
C         37.81862        69.87947         0.91150
C         36.69891        69.24031         0.44524
C         37.84067        71.36704         1.00581
C         36.53120        72.07631         1.09341
C         37.71927        74.22527         1.51083
C         36.54868        73.56325         1.16335
C         40.10876        39.92488         0.36257
C         40.08277        41.32361         0.17386
C         38.86159        42.00357        -0.08187
C         40.07254        44.09653        -0.15390
C         38.83099        43.39651        -0.28084
C         40.06552        45.52201        -0.43976
C         38.75508        46.29295        -0.40354
C         40.04984        48.40890        -0.59199
C         38.91283        47.61944        -1.12370
C         40.24396        49.82332        -0.99863
C         38.98870        50.58265        -1.32186
C         40.26878        52.75726        -0.87904
C         38.95577        52.01980        -0.93745
C         40.25910        54.16460        -1.40616
C         38.98222        54.87700        -1.08181
C         40.30520        57.02169        -0.71114
C         39.03824        56.36604        -1.27428
C         40.22784        58.35130        -0.17600
C         39.04238        59.11592        -0.19799
C         40.19379        61.10855         0.82307
C         38.98628        60.49183         0.22173
C         40.16030        62.54083         1.25822
C         38.95980        63.36825         0.96031
C         40.16247        65.43286         1.73874
C         38.99862        64.73497         1.10251
C         40.17795        66.93319         1.81852
C         39.13845        67.70868         1.04465
C         40.19266        69.85423         1.61570
C         39.07202        69.18739         1.21738
C         40.20986        71.29176         2.06204
C         39.01545        72.07454         1.57622
C         40.22861        74.17731         1.66985
C         38.92981        73.51469         2.06770
C         42.52180        35.74378         1.20541
C         42.54994        37.10917         0.89215
C         41.33819        37.83954         0.78063
C         42.57381        39.95651         0.53728
C         41.32360        39.23049         0.55848
C         42.56471        41.37217         0.41081
C         41.32524        42.05325         0.25020
C         42.55020        44.21148         0.30098
C         41.30769        43.47060         0.13937
C         42.50021        45.68750         0.52770
C         41.26591        46.33500        -0.01140
C         42.82984        48.81140         0.48195
C         40.92324        47.74845         0.21207
C         42.78981        50.00772        -0.24515
C         41.53951        50.57183        -0.82542
C         42.72252        52.73537        -1.20149
C         41.55060        52.04782        -0.99300
C         42.73433        54.19486        -1.29202
C         41.55012        54.91338        -1.16415
C         42.81588        57.02739        -0.89603
C         41.53948        56.33713        -0.92106
C         42.77133        58.38565        -0.29559
C         41.46619        59.02211         0.28080
C         42.69775        61.19087         0.62132
C         41.49984        60.46644         0.56877
C         42.73225        62.60931         0.99417
C         41.47811        63.22731         1.51668
C         42.77851        65.43919         1.80665
C         41.46993        64.68105         1.86532
C         42.78383        66.94753         1.94206
C         41.47252        67.67221         2.07840
C         42.72733        69.86976         1.61741
C         41.46731        69.14850         1.90412
C         42.68182        71.29677         1.50802
C         41.47341        72.01578         1.65868
C         42.64579        74.12697         1.21704
C         41.42567        73.44554         1.50183
C         45.01166        32.97759         1.92309
C         43.79656        33.59779         1.73923
C         45.08994        35.69335         0.95462
C         43.71090        34.91766         1.12671
C         45.04144        37.15734         0.93421
C         43.81221        37.82776         0.78407
C         45.03403        39.98323         0.65183
C         43.80046        39.25393         0.66393
C         45.02176        41.38691         0.45372
C         43.80394        42.10617         0.36883
C         45.03432        44.36193         0.03258
C         43.77291        43.54652         0.33271
C         45.09565        45.75815         0.61736
C         43.83507        46.50078         0.75757
C         45.18761        48.59032         0.22963
C         43.93889        47.95838         0.49987
C         45.19857        49.94448        -0.22831
C         44.01412        50.60495        -0.59466
C         45.29565        52.64909        -1.45475
C         43.99164        51.94480        -1.25722
C         45.32504        54.15501        -1.58570
C         44.00514        54.93416        -1.52200
C         45.34623        57.03035        -1.33778
C         44.02769        56.39840        -1.24826
C         45.46968        58.47625        -1.39040
C         43.69497        59.41484        -0.68443
C         45.12232        61.37415        -0.19798
C         43.85669        60.62368        -0.03574
C         45.16784        62.65774         0.56983
C         43.88691        63.36783         0.86483
C         45.12309        65.54775         1.04572
C         43.96384        64.78523         1.20467
C         45.15038        66.99461         1.21886
C         43.97285        67.70521         1.50050
C         45.16268        69.87011         1.32300
C         43.94123        69.15031         1.47076
C         45.13433        71.30812         1.24458
C         43.89943        72.01117         1.27173
C         45.10487        74.13683         0.96690
C         43.87951        73.44220         1.14555
C         46.24714        33.64944         1.75248
C         47.48747        35.77615         1.53611
C         46.30462        35.01319         1.42832
C         47.50358        37.17020         1.30916
C         46.26417        37.88371         1.04548
C         47.51671        40.00849         0.93958
C         46.27122        39.28337         0.87206
C         47.54944        41.38884         0.73521
C         46.31683        42.09039         0.32891
C         47.58720        44.30880         0.57361
C         46.34462        43.58745         0.18303
C         47.57351        45.70540         0.65961
C         46.33021        46.45554         0.60227
C         47.62118        48.65858         0.94720
C         46.39184        47.87734         0.51503
C         47.68179        50.09054         0.40923
C         46.46919        50.70036        -0.21837
C         47.85992        52.66613        -1.04442
C         46.56903        51.92381        -1.08461
C         47.81311        54.16180        -1.13261
C         46.59405        54.85847        -1.26916
C         47.82988        57.03268        -1.18253
C         46.54996        56.29049        -1.26944
C         47.80286        58.53162        -0.90091
C         46.51434        59.22710        -0.87781
C         47.73307        61.36259        -0.12289
C         46.46369        60.69250        -0.56972
C         47.73461        62.74706         0.19630
C         46.45019        63.40682         0.57870
C         47.68041        65.63561         0.63242
C         46.37549        64.89504         0.58775
C         47.64226        67.06053         1.02860
C         46.39772        67.73039         1.12463
C         47.64064        69.86350         1.32716
C         46.40670        69.15562         1.26760
C         47.60200        71.33937         1.44297
C         46.34127        72.04337         1.18371
C         47.58026        74.16741         0.83758
C         46.34133        73.46152         1.01834
C         48.71139        37.89333         1.37779
C         49.96878        39.99938         1.20213
C         48.75057        39.29139         1.18998
C         50.01887        41.40269         1.04121
C         48.76896        42.13214         0.83400
C         50.02315        44.21306         1.29054
C         48.77417        43.53373         0.77680
C         50.11441        45.66905         0.88321
C         48.85648        46.44770         0.66585
C         50.13085        48.59071         0.81956
C         48.92301        47.91998         0.76025
C         50.22737        50.01715         0.55830
C         49.01271        50.72062         0.16336
C         50.31587        52.62843        -0.61871
C         49.02963        51.97947        -0.40831
C         50.31064        54.15165        -0.91634
C         49.03824        54.88476        -0.97016
C         50.29998        57.00760        -0.72429
C         49.07062        56.28353        -0.89051
C         50.26748        58.42493        -0.27542
C         48.96567        59.17419        -0.23416
C         50.17552        61.24853         0.32508
C         48.97309        60.64165        -0.05904
C         50.13145        62.61794         0.94675
C         48.92604        63.43445         0.52824
C         50.10987        65.51984         1.10550
C         48.94177        64.85150         0.75718
C         50.09284        66.97830         1.35858
C         48.84823        67.75100         1.21605
C         50.14075        69.89275         1.16715
C         48.87642        69.17533         1.31318
C         50.16678        71.38220         1.26002
C         48.88131        72.13746         1.38532
C         50.02202        74.22351         0.54072
C         48.82771        73.54478         0.90591
C         51.25511        42.07311         0.98274
C         52.48885        44.18418         0.68193
C         51.31887        43.49748         0.92509
C         52.52929        45.67838         0.44725
C         51.41422        46.34007         1.28974
C         52.71830        48.55249         0.99970
C         51.39674        47.86894         1.15850
C         52.75854        50.01410         0.74030
C         51.47962        50.69934         0.56922
C         52.45359        52.98047         0.44387
C         51.45012        52.08156         0.13657
C         52.65600        54.24777        -0.14429
C         51.53084        54.91034        -0.63354
C         52.81123        57.04053        -0.57256
C         51.51742        56.32786        -0.65445
C         52.77571        58.54794        -0.38118
C         51.49370        59.21301        -0.14731
C         52.68533        61.27912         0.44378
C         51.44530        60.55765         0.25543
C         52.65435        62.70176         0.70503
C         51.43676        63.36274         0.88340
C         52.70946        65.56902         1.13244
C         51.39066        64.78494         1.23570
C         52.59645        67.01249         0.74826
C         51.38955        67.77246         1.18463
C         52.52063        69.90455         0.35898
C         51.31665        69.21680         0.91101
C         52.52523        71.40676         0.26170
C         51.37347        72.15233         0.84242
C         52.47818        74.25628         0.16902
C         51.28846        73.59837         0.49598
C         53.86407        46.35984         0.66571
C         55.20494        48.41025         0.59981
C         53.95399        47.73218         0.77788
C         55.28767        49.81135         0.55558
C         54.05331        50.57453         0.73610
C         55.37408        52.66272         0.41169
C         54.28085        51.97446         0.87936
C         55.29716        54.09747         0.03279
C         54.00922        54.85874        -0.19522
C         55.23279        57.00700         0.06976
C         54.05100        56.33335        -0.18971
C         55.22223        58.47077         0.13718
C         54.00489        59.19526         0.06653
C         55.17690        61.28317         0.41582
C         53.94289        60.58885         0.33080
C         55.17308        62.71051         0.70517
C         53.90374        63.44554         0.73025
C         55.16290        65.56871         0.51233
C         53.94446        64.83889         0.76235
C         55.13423        67.05288         0.59038
C         53.84255        67.76722         0.40468
C         55.00788        69.96953         0.13663
C         53.84051        69.24473         0.35820
C         54.97518        71.42002         0.01306
C         53.80546        72.12719         0.16188
C         54.95136        74.29949         0.09290
C         53.76383        73.59709         0.13793
C         56.52002        50.51581         0.35287
C         57.78863        52.71065         0.12245
C         56.60192        51.93013         0.23244
C         57.79369        54.13735         0.19777
C         56.53586        54.87949         0.20449
C         57.74094        56.98350         0.50682
C         56.47660        56.26115         0.26173
C         57.71810        58.50839         0.44522
C         56.42636        59.19412         0.25414
C         57.61191        61.34349        -0.11012
C         56.40817        60.61149         0.24141
C         57.59969        62.72415        -0.16522
C         56.48302        63.47787         0.43644
C         57.59220        65.65473        -0.06378
C         56.38095        64.93596         0.26510
C         57.59279        67.10769        -0.05905
C         56.37535        67.84216         0.33023
C         57.48487        69.99754        -0.11251
C         56.29824        69.29788         0.05372
C         57.50960        71.44551        -0.17447
C         56.21364        72.18966        -0.39816
C         57.49849        74.30265        -0.19164
C         56.26444        73.57411         0.27301
C         58.99890        54.87732         0.15052
C         60.18860        57.06726         0.13423
C         59.02368        56.29633         0.24101
C         60.17152        58.49973        -0.00754
C         58.93852        59.18761         0.04014
C         60.10263        61.27849        -0.85688
C         58.81232        60.55139        -0.48917
C         60.06558        62.76237        -1.04613
C         58.69373        63.50889        -0.75890
C         59.93606        65.68409        -0.87774
C         58.72341        64.95156        -0.50245
C         60.00070        67.10827        -0.45663
C         58.72050        67.83531        -0.36332
C         59.93320        69.97161        -0.39459
C         58.74424        69.28137        -0.28397
C         59.96626        71.40174        -0.03426
C         58.68911        72.14407        -0.10113
C         59.95045        74.27111        -0.41362
C         58.71814        73.61047        -0.23889
C         61.37815        59.25212        -0.20564
C         62.54596        61.43057        -0.44159
C         61.38203        60.63284        -0.48287
C         62.53628        62.84685        -0.65635
C         61.30464        63.51458        -0.92290
C         62.53755        65.73552        -0.94017
C         61.28183        64.96343        -1.09646
C         62.52853        67.12593        -0.91389
C         61.27681        67.84686        -0.57779
C         62.47761        70.05433        -0.71710
C         61.18158        69.31001        -0.91671
C         62.47360        71.41930        -0.57179
C         61.27867        72.13601        -0.05017
C         62.50512        74.32495        -0.48757
C         61.25898        73.66715         0.04756
C         63.74680        63.59715        -0.68740
C         64.98226        65.75132        -0.88399
C         63.78068        65.00924        -0.85852
C         64.99094        67.17094        -0.96419
C         63.73813        67.89019        -0.94769
C         64.94592        70.03536        -0.95848
C         63.71623        69.31178        -0.92580
C         64.94587        71.45679        -0.97568
C         63.63773        72.18629        -1.14280
C         64.91563        74.32658        -0.90991
C         63.66606        73.65205        -0.78875
C         66.19648        67.90616        -0.98486
C         67.40535        70.06165        -1.02647
C         66.19900        69.32082        -0.98769
C         67.40123        71.46772        -1.03743
C         66.14545        72.17464        -1.01528
C         67.37169        74.31142        -1.07374
C         66.13351        73.62573        -1.02120
C         68.61055        72.21994        -1.08867
C         68.58222        73.61034        -1.11176
O         53.28709        52.70761         1.52742
O         49.72088        45.94685        -0.46987
O         46.95483        65.43901        -0.64427
O         35.66707        60.73455         1.23480
O         54.75765        54.26978        -1.34411
O         34.82414        54.49935         0.45804
O         36.36414        67.50948        -1.26432
O         60.81360        67.42242         0.74783
O         42.41455        58.29449         1.11327
O         52.20693        70.60492        -0.91997
O         29.21513        68.06362         1.28522
O         39.93157        61.47354         2.23561
O         29.86304        65.35132        -2.36946
O         52.95415        57.94280        -1.72339
O         42.93016        46.08367         1.85324
O         59.13946        63.14844        -2.09348
O         27.96396        70.02527        -1.49474
O         52.97419        67.19539        -0.65239
O         59.30855        60.60939        -1.87676
O         37.21590        59.22502        -1.87308
O         39.06657        67.23975        -0.35060
O         51.16093        71.85187         2.25835
O         49.42025        58.48490         0.97292
O         43.07776        66.08218         3.08642
O         47.45816        51.87499        -2.23435
O         55.91528        67.55626         1.72191
O         30.56617        70.52648         1.69356
O         39.71454        66.15329         2.94680
O         45.98990        62.70485         1.79842
O         50.90518        67.41165         2.50171
O         44.63907        51.97876        -2.57113
O         44.67111        54.61255        -2.79736
O         57.76589        57.78342         1.73172
O         44.36056        59.17254        -1.88358
O         50.51586        53.14159        -1.96418
O         56.10980        63.05505         1.78094
O         48.08956        58.02223        -2.25005
O         48.24360        71.89013         2.67077
O         60.44884        65.44796        -2.21734
O         33.51935        69.81835        -1.50853
O         60.78034        71.56420         1.21423
O         39.56176        52.41153         0.35404
O         41.42959        68.53037         3.26911
O         45.68832        61.49320        -1.53314
O         46.83192        51.00832         1.20141
O         38.52406        47.68384        -2.50675
O         38.50623        50.39213        -2.68265
O         26.65489        68.22632         1.32992
O         41.67016        48.44159         1.15637
O         46.53510        42.73826        -1.00309
O         41.03650        45.97769        -1.41929
O         38.83380        71.99623         0.12860
O         41.53183        63.67529         2.91582
O         36.73765        65.29186         1.90036
O         52.07284        48.42469         2.34879
O         35.06578        63.11686        -1.64393
O         35.65134        71.35297         2.02412
O         44.42719        35.04740        -0.14834
O         41.21467        49.90330        -2.10895
O         52.18903        65.18182         2.41320
O         47.47301        48.76642         2.40005
H         46.95621        49.59017         2.56512
O         36.02009        70.42807        -1.47118
H         36.11195        69.60177        -1.99720
O         40.22466        53.99058        -2.86471
H         40.11107        54.89134        -3.25384
O         63.37497        72.18760        -2.60368
H         63.62836        71.30388        -2.94794
O         40.15483        71.23966         3.52358
H         40.73663        70.50692         3.83017
O         49.88186        44.12389         2.73473
H         50.61277        44.66233         3.12849
O         61.28203        74.02868         1.46872
H         60.89764        73.25732         1.95549
O         36.37247        55.03431        -2.85669
H         35.59962        55.60189        -3.06480
O         51.69206        46.00911         2.66542
H         52.06457        46.82955         3.08095
O         30.27285        67.84264        -2.21856
H         29.92324        67.14312        -2.82056
O         61.02719        69.30921        -2.38534
H         61.04951        70.23929        -2.69702
O         56.42993        73.37577         1.71278
H         55.60994        72.96184         2.05734
O         39.13475        56.54629        -2.73937
H         38.27788        56.23761        -3.11795
O         38.80364        73.57244         3.51589
H         39.33299        72.83337         3.90172
O         44.90066        44.65731        -1.39849
H         45.38132        43.93976        -1.87824
O         56.09595        72.42806        -1.82933
H         55.85826        71.58251        -2.26378
O         52.22380        45.91826        -0.95689
H         52.72306        45.27336        -1.49889
O         38.52781        46.64998         0.99854
H         38.17653        45.86181         1.46424
O         49.91557        62.37495         2.39582
H         49.06594        61.89379         2.49672
O         30.31487        75.50564        -0.03158
H         30.30139        75.23242        -0.97176
H         22.91912        75.25953         0.28833
H         25.38042        75.26143         0.49580
H         27.84101        75.28424         0.65532
H         30.36880        74.68306         1.84631
H         32.85232        75.33722         0.81746
H         35.30299        75.33755         1.01632
H         37.71502        75.32626         1.54736
H         40.26069        75.27289         1.56394
H         42.63290        75.22146         1.10449
H         45.08986        75.22944         0.84282
H         47.53121        75.23307         0.56789
H         49.94717        75.28396         0.25538
H         52.45376        75.34158        -0.01209
H         54.93735        75.40010         0.11844
H         57.48133        75.39624        -0.31487
H         59.93232        75.36604        -0.53521
H         62.55361        75.41771        -0.35131
H         64.93975        75.42189        -0.80051
H         67.37541        75.41082        -1.07959
H         22.00424        69.39459        -0.35252
H         20.78017        71.53995        -0.24519
H         20.78451        74.01588        -0.02043
H         24.46629        65.11898        -0.94175
H         23.22662        67.28310        -0.60573
H         26.95457        60.88004        -1.08986
H         25.74000        63.00679        -1.09123
H         29.37513        56.55659        -1.08084
H         28.15948        58.73405        -1.10764
H         31.82738        52.21840        -1.05517
H         30.57810        54.39951        -1.09320
H         34.23954        47.93632        -1.08417
H         33.05831        50.07223        -1.07113
H         36.72811        43.49423        -0.85991
H         35.41452        45.69777        -1.17385
H         39.16431        39.36080         0.35102
H         37.93398        41.41803        -0.16312
H         41.57536        35.28495         1.52917
H         40.38316        37.29652         0.83927
H         45.03158        31.95406         2.32449
H         42.86988        33.11623         2.08365
H         47.17617        33.12868         2.02517
H         48.42732        35.26961         1.80267
H         49.64927        37.35229         1.57384
H         50.90734        39.44522         1.35332
H         52.18334        41.48411         0.92065
H         53.41973        43.61071         0.53352
H         54.78216        45.78786         0.45231
H         56.10732        47.80420         0.42883
H         57.44376        49.92185         0.28163
H         58.75924        52.19630         0.05016
H         59.95106        54.33849         0.03053
H         61.15426        56.55219         0.01901
H         62.34071        58.74162        -0.05262
H         63.50895        60.94590        -0.22296
H         64.69857        63.05805        -0.57156
H         65.94306        65.21911        -0.82039
H         67.15645        67.36883        -0.99436
H         68.36489        69.52416        -1.05582
H         69.57165        71.68663        -1.11202
H         69.52697        74.17052        -1.15319
