         344
 CSIRO Nanostructure Databank - Neutral Graphene Oxide Data Set
C          1.16960         3.47895         0.47192
C         -0.03796         4.13687         0.31510
C          1.08971         6.28732         0.04975
C         -0.08426         5.52910         0.10991
C          1.08548         7.73305        -0.12646
C         -0.08573         8.47880         0.02859
C          1.01412        10.59379        -0.48234
C         -0.10134         9.89165        -0.10122
C          1.02179        12.09379        -0.76134
C         -0.18006        12.82940        -0.21645
C          1.15745        14.87235         0.12297
C         -0.10495        14.12869         0.12002
C          1.14401        16.33378         0.15056
C         -0.06819        17.06272         0.02927
C          1.14298        19.18090        -0.08420
C         -0.06691        18.43835        -0.06955
C          1.15428        20.62113        -0.18751
C         -0.05224        21.36423        -0.21682
C          1.17955        23.46541        -0.35698
C         -0.03877        22.74005        -0.28975
C          1.16235        24.92032        -0.40337
C          0.01468        25.67402        -0.32690
C          1.19736        27.82197        -0.36280
C          0.02348        27.10832        -0.41154
C          1.25286        29.25538        -0.28828
C          3.63245         3.52203         0.52264
C          2.39453         4.19688         0.43828
C          3.54728         6.35881         0.11902
C          2.35338         5.62640         0.21529
C          3.53708         7.71332        -0.31644
C          2.31919         8.40433        -0.43801
C          3.55068        10.62372        -1.00274
C          2.25912         9.85058        -0.78705
C          3.59226        12.15878        -0.82510
C          2.32196        12.66178        -0.10630
C          3.62870        14.82378         0.31140
C          2.33769        14.16762         0.03537
C          3.62109        16.34537         0.38185
C          2.35359        17.05769         0.16180
C          3.62182        19.19301        -0.02780
C          2.37079        18.47217         0.01892
C          3.62237        20.57852        -0.19849
C          2.39516        21.32215        -0.26192
C          3.67568        23.47588        -0.31645
C          2.40246        22.75193        -0.36446
C          3.70023        24.88858        -0.33792
C          2.45036        25.63992        -0.75035
C          3.73475        27.81732        -0.51214
C          2.47330        27.04870        -0.11910
C          3.70367        29.25566        -0.04627
C          2.43061        29.92848        -0.08544
C          6.08925         3.56524         0.55554
C          4.85077         4.22206         0.56976
C          6.09351         6.32864         0.20899
C          4.79061         5.73422         0.71294
C          6.12568         7.68068        -0.42087
C          4.81929         8.36767        -0.69884
C          6.15746        10.58495        -0.98530
C          4.84684         9.83656        -0.98949
C          6.12359        12.07487        -0.79429
C          4.88791        12.62904        -0.09720
C          6.10255        14.85417         0.11942
C          4.91948        14.14549         0.04481
C          6.11751        16.31711         0.25042
C          4.88910        17.06430         0.18559
C          6.12131        19.17857         0.15976
C          4.87993        18.45573         0.07017
C          6.13122        20.57935         0.07166
C          4.92353        21.28959        -0.49009
C          6.08915        23.45691         0.08907
C          4.88815        22.76478        -0.18499
C          6.08291        24.86342         0.20958
C          4.90597        25.59511        -0.07728
C          6.13059        27.74368         0.18952
C          4.95276        27.04866        -0.06561
C          6.14766        29.20175         0.21206
C          4.88595        29.90865         0.19169
C          8.54795         3.55280         0.44779
C          7.34325         4.23315         0.58953
C          8.59440         6.41682         0.35337
C          7.34116         5.73563         0.82801
C          8.59914         7.74991        -0.05419
C          7.38575         8.46935        -0.39558
C          8.65199        10.56518        -0.56404
C          7.42067         9.83774        -0.70048
C          8.70505        12.04462        -0.62684
C          7.41086        12.83392        -0.64749
C          8.59409        14.83864         0.16133
C          7.39535        14.19496        -0.07834
C          8.57763        16.23618         0.72987
C          7.32749        17.00112         0.36143
C          8.56626        19.12564         0.49882
C          7.35384        18.43782         0.36985
C          8.56400        20.60543         0.77786
C          7.31967        21.32102         0.31501
C          8.57751        23.44893         0.34884
C          7.32735        22.71485         0.27486
C          8.58825        24.84457         0.41699
C          7.30644        25.56970         0.73740
C          8.57349        27.72061         0.44805
C          7.36412        27.03981         0.41058
C          8.60269        29.17146         0.38697
C          7.35037        29.87307         0.32291
C         11.00540         3.51919         0.27654
C          9.81794         4.20704         0.44704
C         11.10521         6.35270         0.22172
C          9.86085         5.69262         0.73366
C         11.08045         7.76111         0.01234
C          9.85774         8.46460        -0.12145
C         11.11049        10.59820        -0.18209
C          9.85550         9.87989        -0.30346
C         11.11916        12.04163        -0.05064
C          9.91096        12.74953        -0.14898
C         11.08903        14.86448         0.26813
C          9.86743        14.15287         0.07144
C         11.07717        16.29678         0.41176
C          9.85908        16.99761         0.48917
C         11.03069        19.15807         0.52414
C          9.82658        18.42523         0.51853
C         11.03684        20.58544         0.36996
C          9.82914        21.29909         0.34774
C         11.00977        23.44328         0.02878
C          9.81871        22.73449         0.22361
C         11.03935        24.86822         0.13373
C          9.81392        25.56795         0.36756
C         11.05400        27.68798         0.49427
C          9.83015        26.99535         0.46830
C         11.06928        29.14517         0.54392
C          9.81462        29.84384         0.44300
C         13.48683         3.49074         0.15899
C         12.28720         4.18224         0.22716
C         13.54440         6.32319        -0.05177
C         12.29833         5.63447         0.15842
C         13.52871         7.73643        -0.19308
C         12.32500         8.45634        -0.13138
C         13.57335        10.60368         0.10948
C         12.30494         9.89192        -0.12588
C         13.58780        12.07470         0.09446
C         12.34664        12.75787         0.12944
C         13.58545        14.88543         0.33358
C         12.34051        14.18046         0.23484
C         13.55015        16.31168         0.47663
C         12.33367        16.98668         0.51498
C         13.59874        19.22207         0.58436
C         12.30365        18.44774         0.71681
C         13.51009        20.62828         0.16082
C         12.28462        21.27198         0.14977
C         13.49919        23.43561         0.19636
C         12.26470        22.69480        -0.34661
C         13.53472        24.88078        -0.28821
C         12.26389        25.59045         0.10394
C         13.55352        27.65683         0.50869
C         12.29172        26.97323         0.37373
C         13.55460        29.10219         0.94704
C         12.26640        29.81770         0.65432
C         15.96162         3.47994         0.22011
C         14.76220         4.17003         0.11770
C         16.02488         6.31961        -0.12064
C         14.76922         5.61188        -0.02183
C         16.05304         7.71585        -0.34282
C         14.77758         8.45961        -0.61275
C         16.11062        10.58597        -0.28223
C         14.84886         9.85072        -0.03591
C         16.03689        12.06086        -0.36332
C         14.80140        12.77531         0.02809
C         16.10720        14.86795         0.31987
C         14.82859        14.18828         0.21104
C         16.12023        16.28941         0.75688
C         14.82409        17.04080         0.73277
C         16.01885        19.12619        -0.00094
C         14.87331        18.49388         0.41741
C         15.93219        20.52394        -0.62207
C         14.73434        21.31393        -0.16604
C         16.01146        23.41876        -0.11655
C         14.77873        22.69884        -0.11967
C         16.00387        24.83059         0.10639
C         14.80744        25.56000         0.14957
C         16.03623        27.69783         0.37298
C         14.77200        26.96828         0.40883
C         15.98664        29.17352         0.28982
C         14.76059        29.82662         0.43295
C         18.51579         3.46104         0.20087
C         17.24640         4.20934         0.51234
C         18.46027         6.29918        -0.23044
C         17.25552         5.62078        -0.01991
C         18.49007         7.71446        -0.32641
C         17.26613         8.42814        -0.36700
C         18.57298        10.59505        -0.77523
C         17.27472         9.89144        -0.43693
C         18.59656        12.05328        -0.33500
C         17.33679        12.82117        -0.38946
C         18.58980        14.90690         0.13933
C         17.31169        14.22003         0.07942
C         18.61821        16.31552         0.23997
C         17.42720        17.10096         0.73630
C         18.47639        19.12270        -0.27208
C         17.30943        18.45763         0.03484
C         18.46062        20.51310        -0.87723
C         17.22079        21.30748        -0.49380
C         18.57572        23.36838        -0.03362
C         17.24270        22.66221        -0.25771
C         18.52667        24.88251        -0.11212
C         17.29699        25.53914         0.47344
C         18.41868        27.79074        -0.29248
C         17.21820        27.02420         0.21814
C         18.48207        29.16369         0.37945
C         17.18566        29.88822         0.15771
C         19.65139         4.07702        -0.14670
C         20.90833         6.27940         0.13648
C         19.74242         5.54353        -0.48000
C         20.91537         7.63021         0.17542
C         19.75550         8.43102        -0.21424
C         21.00356        10.57642        -0.12684
C         19.79822         9.81682        -0.33196
C         21.01210        11.94117        -0.07704
C         19.78748        12.71783        -0.14814
C         21.00414        14.90776        -0.16750
C         19.80315        14.18169        -0.04224
C         21.00850        16.29715        -0.17232
C         19.81747        17.02306         0.03895
C         20.90979        19.25557        -0.01645
C         19.77189        18.48520        -0.06632
C         20.87039        20.67646        -0.23429
C         19.73673        21.29261        -0.65499
C         20.92165        23.53544        -0.92898
C         19.63156        22.76539        -0.97670
C         20.91677        24.85382        -0.66485
C         19.68900        25.58258        -0.32693
C         20.88266        27.77812        -0.26984
C         19.73259        27.04297        -0.23232
C         20.85671        29.22953        -0.27687
C         19.72204        29.91764        -0.02905
O          4.83050         8.86262        -2.07951
O          6.04687        11.52291        -2.13368
O         16.57851        12.58380        -1.64718
O         13.01869        18.95246         1.91620
O          2.75252        10.22818        -2.15095
O          8.21869        12.69532        -1.85576
O         15.40015        16.56543         2.01369
O          6.21133         6.43186        -1.22822
O          3.62188        15.52975         1.61214
O         14.30385        10.02490         1.30012
O         17.44204        25.35944         1.93450
H         16.74092        25.89340         2.36724
O          5.08015        21.21918        -1.96062
H          5.07368        20.27016        -2.20960
O          2.34327        12.11823         1.24961
H          1.61354        12.54324         1.74960
O          7.29299         5.94446         2.27686
H          8.20225         5.72364         2.61449
O         13.58633        24.89210        -1.75727
H         13.57341        25.82923        -2.04576
O         17.76705        17.41971         2.11586
H         16.91957        17.39063         2.62388
O          2.43583        25.69349        -2.19845
H          3.08922        26.37609        -2.48478
O          9.96406         5.79007         2.22543
H         10.27833         6.69713         2.43211
O          8.54475        20.71877         2.26054
H          9.39222        20.34840         2.58951
O          0.99384        12.30036        -2.18057
H          1.71035        11.74422        -2.57728
O         13.37806        23.51073         1.63911
H         13.39567        22.59614         1.99335
O         19.96616         5.58837        -1.93117
H         20.01977         6.53323        -2.18998
O          8.50835        16.06304         2.19499
H          8.41754        16.95538         2.59235
O          7.17411        25.51117         2.20914
H          7.95757        25.96180         2.59018
O          3.61644        12.76245        -2.12528
H          4.35250        12.34151        -2.63203
O         12.29586        22.59158        -1.79296
H         12.62597        23.45008        -2.15267
O         18.36328        20.31069        -2.34062
H         18.48796        21.21480        -2.72949
O         14.68690         8.65230        -2.06427
H         14.72281         7.76893        -2.48791
O         18.99368        23.06361         1.32117
H         18.50139        23.67380         1.91974
O          4.96712        12.04258         1.22384
H          4.12821        12.25829         1.70114
O         15.70304        20.27407        -2.04910
H         16.59293        20.07739        -2.44419
O         18.16460        28.03533        -1.70992
H         18.18783        27.17222        -2.17347
O         17.24682         4.35121         1.98721
H         16.44188         4.85688         2.23075
O         19.11196        22.90931        -2.34446
H         19.87893        22.99696        -2.94884
O          2.57118        26.87700         1.31885
H          1.75057        26.43719         1.62595
O         18.58341        28.92115         1.82042
H         18.57099        29.78960         2.27397
O          3.80774        27.91681        -1.97513
H          4.62539        28.41114        -2.19627
O          4.65534         6.03570         2.13195
H          5.52272         5.83327         2.56257
O         13.67745        29.09006         2.43262
H         12.86137        28.67253         2.78262
O         18.62016        10.65513        -2.24241
H         17.88254        11.25378        -2.51253
H          1.19120         2.39064         0.62701
H         -0.97850         3.56894         0.34481
H         -1.06396         6.00968        -0.01752
H         -1.02526         7.97672         0.29480
H         -1.05052        10.41076         0.09033
H         -1.16284        12.33681        -0.23255
H         -1.01901        14.65151         0.43526
H         -1.03037        16.53527         0.00343
H         -1.03144        18.95485        -0.15799
H         -1.02081        20.85013        -0.16962
H         -0.99700        23.27575        -0.30345
H         -0.96517        25.19139        -0.20098
H         -0.94034        27.63586        -0.47157
H          0.30783        29.81686        -0.34806
H          3.64085         2.42097         0.52586
H          2.41796        31.02126         0.04617
H          6.09331         2.46575         0.47587
H          4.88773        30.98791         0.41020
H          8.52735         2.46116         0.29850
H          7.35997        30.97315         0.35186
H         10.98052         2.42612         0.14549
H          9.82728        30.94403         0.42942
H         13.48384         2.39089         0.19668
H         12.26821        30.91796         0.69068
H         15.94436         2.38617         0.34767
H         14.72177        30.92427         0.35447
H         18.51356         2.37469         0.38312
H         17.16391        30.98977         0.14632
H         20.56460         3.48386        -0.31334
H         21.80123         5.71234         0.43995
H         21.81318         8.14930         0.54132
H         21.95267        10.04197         0.02080
H         21.96578        12.45835         0.09362
H         21.95335        14.37819        -0.32402
H         21.95564        16.82783        -0.34174
H         21.88306        18.79658         0.20503
H         21.79837        21.24814        -0.08752
H         21.85794        23.03403        -1.21847
H         21.86255        25.41186        -0.70376
H         21.86891        27.29427        -0.30729
H         21.79759        29.75906        -0.48810
H         19.71823        31.01833        -0.00868
