         424
 CSIRO Nanostructure Databank - Neutral Graphene Oxide Data Set
C          1.42701         1.99710         1.36308
C          1.39145         3.39877         1.34512
C          2.63075         1.31788         1.25778
C          2.57003         4.15632         1.22318
C          1.34978         6.34277         1.28744
C          1.33859         7.72691         1.27168
C          2.55686         5.61196         1.20473
C          2.53737         8.47266         1.18659
C          1.30972        10.67171         1.16742
C          1.28381        12.03531         1.04745
C          2.54358         9.92011         1.19332
C          2.48066        12.82047         1.01535
C          1.26882        14.99081         0.81005
C          1.29757        16.35931         0.70875
C          2.46761        14.20223         0.83637
C          2.52700        17.09948         0.62181
C          2.52975        18.52361         0.54361
C          3.84779         2.03704         1.13099
C          3.81803         3.47064         1.11670
C          5.08391         1.35726         1.01364
C          5.03969         4.19879         0.99202
C          3.77887         6.33319         1.10226
C          3.77227         7.76497         1.10755
C          5.02474         5.63033         0.98981
C          5.00543         8.48732         1.03425
C          3.75693        10.61386         1.18205
C          3.75522        12.10506         1.41905
C          5.00538         9.91690         1.10435
C          5.04805        12.76728         1.02713
C          3.74072        14.92673         0.57431
C          3.75509        16.40503         0.60214
C          5.05058        14.20941         0.70143
C          4.98303        17.09807         0.51743
C          3.71232        19.21565         0.43698
C          4.96920        18.53137         0.42632
C          6.29135         2.05886         0.87802
C          6.27529         3.50153         0.87112
C          7.52846         1.37445         0.73077
C          7.49245         4.21943         0.73058
C          6.24084         6.35056         0.86351
C          6.23675         7.78419         0.89750
C          7.47789         5.64819         0.71712
C          7.45840         8.50485         0.77477
C          6.24017        10.62933         1.08772
C          6.23002        12.08111         1.07855
C          7.46635         9.92956         0.89277
C          7.50392        12.84287         1.38582
C          6.30790        14.97753         0.79616
C          6.25088        16.40911         0.58055
C          7.51643        14.29085         0.91711
C          7.43745        17.14155         0.51494
C          6.17864        19.23957         0.31966
C          7.42298        18.56715         0.33891
C          8.73454         2.06717         0.57361
C          8.73323         3.51543         0.58618
C          9.96139         1.37515         0.37688
C          9.93907         4.22324         0.43558
C          8.69080         6.36956         0.53860
C          8.68462         7.80216         0.53999
C          9.92882         5.66505         0.40175
C          9.87725         8.52062         0.28073
C          8.70711        10.63281         0.75972
C          8.78219        12.07630         1.05627
C          9.87666         9.95670         0.36279
C         10.02295        12.83281         0.63331
C          8.75440        14.97987         0.71503
C          8.75550        16.48198         0.81819
C          9.95324        14.30299         0.44614
C          9.91499        17.15202         0.14094
C          8.64253        19.26719         0.15999
C          9.87276        18.57197        -0.02384
C         11.16396         2.06018         0.17736
C         11.17697         3.50952         0.22152
C         12.38691         1.36675        -0.04948
C         12.37286         4.19933         0.02228
C         11.12269         6.38359         0.19193
C         11.10290         7.79698         0.03683
C         12.44669         5.67637         0.29600
C         12.27328         8.48564        -0.36190
C         11.06302        10.69178        -0.01245
C         11.12220        12.07739         0.00374
C         12.15334         9.94289        -0.74631
C         12.28007        12.81492        -0.47302
C         11.10776        14.98826        -0.03977
C         11.07869        16.42552        -0.16814
C         12.27034        14.27126        -0.48257
C         12.25014        17.12486        -0.58945
C         11.04988        19.25625        -0.40345
C         12.24362        18.55469        -0.65762
C         13.57554         2.04793        -0.31375
C         13.57743         3.50286        -0.31080
C         14.80591         1.35113        -0.51479
C         14.72977         4.21247        -0.67487
C         13.57705         6.37447        -0.40792
C         13.50703         7.78757        -0.60181
C         14.73032         5.65323        -0.76177
C         14.68093         8.47437        -1.00398
C         13.50805        10.63490        -0.53238
C         13.45311        12.12370        -0.79240
C         14.61019         9.94111        -1.32876
C         14.66190        12.79445        -1.12688
C         13.41058        14.97521        -0.91702
C         13.43808        16.40213        -0.89522
C         14.60628        14.25755        -1.50126
C         14.64674        17.12129        -1.14829
C         13.45271        19.23774        -0.99114
C         14.63393        18.54459        -1.19898
C         15.97063         2.01399        -0.89952
C         15.87997         3.46155        -1.21955
C         17.23202         1.37683        -0.90482
C         17.12112         4.19794        -1.65645
C         15.92727         6.35653        -1.13806
C         15.90962         7.78757        -1.16524
C         17.15067         5.66483        -1.40177
C         17.13936         8.52232        -1.31699
C         15.91817        10.67425        -1.20466
C         15.87100        12.09556        -1.24618
C         17.12261         9.96865        -1.31928
C         17.12126        12.84810        -1.63540
C         15.90667        14.99123        -1.23708
C         15.89859        16.40775        -1.19291
C         17.11773        14.29227        -1.21533
C         17.13054        17.11851        -1.13529
C         15.89373        19.30191        -1.56016
C         17.16700        18.55025        -1.24200
C         18.43668         2.03990        -1.20365
C         18.41613         3.38175        -1.91985
C         19.66303         1.39516        -1.01434
C         19.69663         4.18967        -1.69117
C         18.34915         6.38193        -1.42765
C         18.36301         7.80687        -1.33358
C         19.65238         5.68018        -1.55656
C         19.62715         8.50681        -1.35588
C         18.36204        10.70883        -1.37613
C         18.39189        12.10044        -1.32079
C         19.61001         9.96147        -1.53124
C         19.60138        12.80867        -0.98255
C         18.33994        14.97077        -0.98334
C         18.34495        16.39734        -0.95136
C         19.56909        14.25007        -0.76319
C         19.57399        17.10053        -0.80232
C         18.36753        19.22100        -1.15858
C         19.60008        18.52431        -0.92067
C         20.91668         2.07184        -1.09895
C         20.93259         3.48905        -1.27384
C         22.14330         1.38012        -0.94916
C         22.13285         4.21305        -1.10174
C         20.82947         6.37205        -0.90043
C         20.85212         7.84974        -1.23040
C         22.14211         5.64965        -1.09522
C         22.08485         8.55784        -1.11375
C         20.92019        10.73002        -1.26908
C         20.80177        12.11269        -0.82730
C         22.12211         9.95047        -0.95069
C         21.96712        12.71522        -0.17522
C         20.72391        14.94894        -0.39119
C         20.76651        16.38670        -0.47285
C         21.92992        14.22805         0.05934
C         21.96577        17.09174        -0.24790
C         20.83425        19.19028        -0.83978
C         22.02196        18.49122        -0.51165
C         23.37310         2.06042        -0.91389
C         23.37054         3.51208        -0.91641
C         24.61367         1.36745        -0.92212
C         24.56572         4.22772        -0.75563
C         23.34170         6.34025        -1.02245
C         23.38069         7.82162        -1.30957
C         24.58011         5.64145        -0.84989
C         24.58482         8.53113        -0.74429
C         23.32085        10.63544        -0.56178
C         23.28555        12.04793        -0.22405
C         24.53610         9.92017        -0.49790
C         24.41688        12.75571         0.16699
C         23.21689        14.92748         0.17897
C         23.10570        16.41146         0.47871
C         24.40648        14.19940         0.33136
C         24.44027        17.14677         0.37383
C         23.28604        19.15798        -0.54001
C         24.48949        18.49236        -0.25659
C         25.84194         2.04038        -0.78154
C         25.80895         3.48729        -0.33808
C         27.07295         1.38177        -0.86069
C         27.08662         4.23641        -0.61739
C         25.81214         6.37948        -0.73430
C         25.78884         7.79050        -0.68176
C         27.07180         5.65463        -0.64218
C         27.06582         8.58252        -0.70470
C         25.80464        10.72884        -0.31379
C         25.65305        11.97287         0.56996
C         26.95029         9.83611         0.17434
C         26.96265        12.74497         0.57650
C         25.67610        14.87408         0.48606
C         25.71569        16.34882         0.44149
C         26.91623        14.18391         0.59196
C         26.96931        16.99018         0.01751
C         25.73564        19.06517        -0.54405
C         26.96832        18.35335        -0.40825
C         28.31931         2.07241        -0.71156
C         28.30096         3.52049        -0.60140
C         29.54662         1.40263        -0.72885
C         29.53824         4.21992        -0.47835
C         28.30381         6.36030        -0.53758
C         28.30189         7.79550        -0.38458
C         29.52574         5.63956        -0.41020
C         29.45138         8.50834        -0.13628
C         28.23593        10.63364         0.26711
C         28.19723        12.05432         0.54554
C         29.43131         9.93771         0.13145
C         29.44629        12.74346         0.82706
C         28.14523        14.91315         0.62022
C         28.17975        16.27461         0.18443
C         29.37576        14.24589         1.20156
C         29.41551        16.95059        -0.08802
C         28.19326        18.97277        -0.74110
C         29.42461        18.29486        -0.57471
C         30.78964         2.08965        -0.54620
C         30.77315         3.51379        -0.38206
C         32.03309         1.43011        -0.52568
C         31.97753         4.21181        -0.05808
C         30.75529         6.33491        -0.17911
C         30.75298         7.82147        -0.41556
C         31.93034         5.64358         0.06207
C         31.96898         8.53628         0.07713
C         30.67415        10.62106         0.38730
C         30.62855        11.98735         0.87359
C         31.89724         9.94965         0.30443
C         31.89210        12.50544         1.36281
C         30.63938        15.05169         0.88235
C         30.65180        16.30127         0.20764
C         31.86848        14.64069         1.39619
C         31.89494        16.96927        -0.00930
C         30.66772        18.93775        -0.82639
C         31.89694        18.30758        -0.55007
C         33.23356         2.11915        -0.21451
C         33.19699         3.50580         0.09382
C         34.49979         1.44584        -0.25954
C         34.35271         4.17670         0.83972
C         33.13019         6.39830         0.58499
C         33.14662         7.83269         0.13402
C         34.45117         5.65990         0.47579
C         34.42680         8.54128         0.03286
C         33.14749        10.64091         0.64753
C         33.13646        12.08723         0.92459
C         34.44305         9.95441         0.48134
C         34.39207        12.81810         1.01016
C         33.13020        15.09218         0.98584
C         33.13444        16.34237         0.32115
C         34.39815        14.32594         1.37756
C         34.38116        17.01763         0.09946
C         33.13499        18.98325        -0.71728
C         34.36974        18.38109        -0.38697
C         35.69840         2.08252         0.05098
C         35.71531         3.41059         0.78868
C         36.94679         1.43974        -0.10228
C         36.93348         4.24095         0.41742
C         35.64016         6.32692         0.35718
C         35.70289         7.79299         0.10185
C         36.92209         5.63902         0.42220
C         36.93494         8.56379         0.42122
C         35.67165        10.76801         0.17771
C         35.59778        12.17245         0.75208
C         36.91817         9.97391         0.52402
C         36.87259        12.85923         0.83599
C         35.63050        15.01129         0.82151
C         35.59309        16.34446         0.38103
C         36.86848        14.29373         0.81666
C         36.87429        17.00043        -0.08507
C         35.58056        19.11424        -0.41772
C         36.82063        18.51046        -0.05833
C         38.17394         2.11600         0.12890
C         38.16477         3.54780         0.31601
C         39.42326         1.45097         0.08070
C         39.39027         4.27509         0.34852
C         38.14983         6.38523         0.42380
C         38.14198         7.84051         0.51487
C         39.37349         5.69640         0.41329
C         39.36280         8.56008         0.71104
C         38.12444        10.69251         0.73574
C         38.09446        12.15175         0.82079
C         39.33598         9.98264         0.81453
C         39.33949        12.86619         0.94622
C         38.10582        14.99191         0.73852
C         38.10705        16.40935         0.54203
C         39.33606        14.29803         0.93158
C         39.26095        17.14956         0.70157
C         37.95042        19.24982         0.19215
C         39.19266        18.65791         0.79457
C         40.61469         2.15210         0.25825
C         40.62698         3.55245         0.38916
C         41.84769         4.28774         0.64302
C         40.67595         6.45808         0.27419
C         40.60040         7.85872         0.83567
C         41.87036         5.64069         0.69064
C         41.72084         8.55605         1.37626
C         40.66028        10.69782         0.74028
C         40.58165        12.18102         1.02105
C         41.72413         9.92333         1.47413
C         41.76161        12.91921         1.14808
C         40.55841        15.03498         1.01330
C         40.53052        16.49170         0.90411
C         41.75511        14.31698         1.16504
C         41.69107        17.25665         0.80974
C         40.46850        19.31736         0.34679
C         41.64499        18.64465         0.45436
O         19.94148         5.09486        -2.85488
O          4.41679        14.40600        -0.64286
O         25.15727        17.06812         1.64990
O         20.43682        10.46632        -2.63140
O         16.09784         3.82907        -2.63643
O         35.14714         8.22503        -1.22006
O         33.90272        10.02255         1.82825
O         21.66708        13.27364         1.14965
O         31.83587        13.55653         2.29145
O          9.83056        12.40504         2.04296
O         39.09431        18.95013         2.24472
H         39.91953        18.62033         2.66047
O         18.41846         3.01774        -3.31795
H         18.69766         3.81642        -3.81955
O         17.06340        12.92659        -3.12160
H         17.28891        12.03667        -3.46988
O         27.25416         8.97087        -2.11646
H         26.93172         8.23140        -2.67464
O         26.65951         9.30959         1.48693
H         26.33041        10.05120         2.05058
O         29.18713        14.28228         2.65161
H         30.01191        13.91937         3.04957
O         13.86813        10.46516         0.86141
H         13.18016        10.89861         1.40990
O         34.50887        14.38977         2.83071
H         33.70073        13.96029         3.19231
O         23.60701         7.87873        -2.77902
H         23.35640         8.77948        -3.07833
O         35.69862        10.94508        -1.27246
H         35.68903        10.03864        -1.66857
O         26.12711        11.28827        -1.61065
H         26.50021        10.55986        -2.16736
O         33.85907         4.13584         2.21736
H         34.55097         3.69789         2.76927
O         12.80125         5.76945         1.74275
H         12.08529         5.32029         2.24187
O         25.39277        11.57227         1.95415
H         25.27887        12.38859         2.48612
O         11.73429         9.98449        -2.13766
H         12.53861         9.87696        -2.70317
O         32.88428         6.55773         2.02736
H         33.09173         5.68281         2.44786
O         41.06205        10.63334        -0.68482
H         41.05033         9.68537        -0.94396
O          8.97040        16.74175         2.27428
H          8.97685        17.71727         2.38637
O          7.45246        12.94623         2.84590
H          8.38660        13.06362         3.14304
O          3.75139        12.25340         2.90130
H          4.60353        11.89376         3.23246
O         25.72913         3.42915         1.13663
H         26.52991         2.95742         1.45117
O         36.02398         3.01828         2.17611
H         36.83549         2.46645         2.14761
O         30.89771         7.94866        -1.89151
H         30.04884         7.66471        -2.29432
O         15.90196        20.60156        -0.96119
H         15.96399        20.49069         0.00945
O         14.44311        14.27341        -2.96217
H         15.25575        13.84957        -3.33262
O         20.54857         6.28612         0.53619
H         21.28921         6.70998         1.01934
O         14.28839        10.03300        -2.76465
H         14.93418         9.47591        -3.24896
O         40.84693         6.67799        -1.18894
H         40.82225         5.79404        -1.61471
O         36.99271        16.64348        -1.50914
H         36.19607        16.99237        -1.96324
O         22.69493        16.46020         1.88098
H         23.52826        16.52675         2.40746
H          0.48702         1.43608         1.46095
H          0.41655         3.89672         1.43067
H          2.65391         0.21883         1.27010
H          0.39016         5.81459         1.36407
H          0.37077         8.24042         1.34014
H          0.35331        10.13255         1.16688
H          0.31115        12.53106         0.91954
H          0.29578        14.49206         0.91908
H          0.35293        16.92266         0.71639
H          1.57001        19.06014         0.55427
H          5.09457         0.25712         1.02024
H          3.70808        20.31289         0.36336
H          7.53133         0.27429         0.72156
H          6.15859        20.33448         0.21429
H          9.95500         0.27514         0.35724
H          8.62042        20.35847         0.02694
H         12.38253         0.26656        -0.04479
H         11.03143        20.35167        -0.50223
H         14.83467         0.26522        -0.33842
H         13.45468        20.33638        -1.04551
H         17.28580         0.33430        -0.55319
H         15.87245        19.47327        -2.67491
H         19.66287         0.34215        -0.69242
H         18.38312        20.31625        -1.26099
H         22.13141         0.28203        -0.88497
H         20.88000        20.27675        -1.00547
H         24.61172         0.27722        -1.07643
H         23.32478        20.19695        -0.90024
H         27.09131         0.29843        -1.05729
H         25.76631        20.08625        -0.95300
H         29.55994         0.30880        -0.84980
H         28.19246        20.01502        -1.09219
H         32.07659         0.34701        -0.71410
H         30.66585        19.97098        -1.20391
H         34.52818         0.40996        -0.63131
H         33.12961        20.02119        -1.08164
H         36.97236         0.39846        -0.45777
H         35.54408        20.19830        -0.60535
H         39.44531         0.36185        -0.06721
H         37.89838        20.34886         0.12826
H         41.56895         1.60547         0.27766
H         42.76568         3.71208         0.83791
H         42.82276         6.15741         0.87682
H         42.59070         7.98654         1.73650
H         42.59678        10.44068         1.89787
H         42.72733        12.39694         1.19721
H         42.71361        14.84602         1.25642
H         42.67830        16.78292         0.89614
H         40.45020        20.37985         0.06341
H         42.59473        19.15261         0.23044
