         234
 CSIRO Nanostructure Databank - Neutral Graphene Oxide Data Set
C          1.43463         1.81406        -0.92336
C          1.42563         3.21687        -1.26060
C          2.47743         1.22050        -0.28335
C          2.49207         4.02454        -0.99295
C          1.33924         6.22754        -0.83808
C          1.30358         7.56354        -0.71063
C          2.52067         5.47787        -1.44721
C          2.41614         8.44875        -1.14575
C          1.44318        10.41586         0.17465
C          1.43324        11.77266         0.48655
C          2.38352         9.89075        -0.74310
C          2.47611        12.64349         0.08221
C          1.39233        14.72715         0.90963
C          1.43490        16.09599         1.27193
C          2.44421        14.08249         0.27465
C          2.56393        16.86552         1.05093
C          2.72545        18.18365         1.62282
C          3.61397         2.01515         0.19916
C          3.61373         3.48344        -0.20957
C          4.88809         1.36815         0.56622
C          4.92779         4.17770        -0.31432
C          3.80233         6.24161        -1.10994
C          3.76488         7.70111        -1.41646
C          4.90372         5.64825        -0.54234
C          5.02814         8.44541        -1.23810
C          3.34789        10.81409        -1.19758
C          3.56612        12.08846        -0.63393
C          5.17508         9.77346        -1.50548
C          4.84604        12.81340        -0.77808
C          3.56189        14.86337        -0.28414
C          3.61956        16.34816         0.16968
C          4.82662        14.20684        -0.64767
C          4.98273        16.92403         0.29919
C          3.89852        18.86358         1.56205
C          5.11979        18.23317         1.03206
C          6.06870         2.08537         0.71370
C          6.13243         3.50402         0.24556
C          7.29655         1.48824         1.08407
C          7.24186         4.35841         0.82019
C          6.18001         6.33377        -0.34098
C          6.26021         7.71566        -0.86369
C          7.29437         5.72357         0.17483
C          7.49632         8.51925        -0.68298
C          6.13078        10.62748        -0.69268
C          6.10570        12.12190        -0.88388
C          7.48015         9.99672        -0.69836
C          7.34640        12.83644        -0.75492
C          6.05206        14.99570        -1.10162
C          6.06120        16.48492        -0.64959
C          7.35034        14.26325        -0.75630
C          7.34749        17.26440        -0.66064
C          6.32061        19.03042         0.80072
C          7.43982        18.57002         0.12572
C          8.53770         2.20345         1.05061
C          8.55978         3.61355         0.83743
C          9.76787         1.51311         1.18066
C          9.79715         4.30396         0.73256
C          8.57894         6.45567         0.34959
C          8.66060         7.90925         0.00045
C          9.82366         5.69348         0.46808
C          9.92913         8.60848        -0.25794
C          8.64544        10.70688        -0.56292
C          8.60660        12.15170        -0.61876
C          9.92165         9.99209        -0.46783
C          9.83331        12.86791        -0.58451
C          8.56688        14.96789        -0.67361
C          8.57749        16.42698        -0.82394
C          9.81842        14.27585        -0.61996
C          9.79346        17.03427        -0.89576
C          8.60725        19.38715         0.29000
C          9.86870        19.15123        -0.28031
C         11.01645         2.17723         1.06293
C         11.04217         3.59193         0.83373
C         12.23817         1.46229         1.12347
C         12.29583         4.28254         0.73332
C         11.08675         6.32892         0.08598
C         11.13267         7.78684        -0.34068
C         12.35372         5.67140         0.43285
C         12.45161         8.48602        -0.41024
C         11.13594        10.73593        -0.52558
C         11.11158        12.14889        -0.50976
C         12.41940         9.98478        -0.57662
C         12.31546        12.88169        -0.27478
C         11.14447        15.02571        -0.77029
C         10.99712        16.44622        -0.21274
C         12.34675        14.28836        -0.21320
C         12.26409        17.26959        -0.20443
C         11.12970        19.50695         0.18142
C         12.30571        18.68333        -0.05036
C         13.48615         2.11382         0.96719
C         13.51314         3.54761         0.82419
C         14.69106         1.38138         0.87512
C         14.76102         4.23335         0.73657
C         13.59114         6.39256         0.40723
C         13.65902         7.79617         0.10631
C         14.80529         5.68238         0.65993
C         14.88158         8.49466         0.22992
C         13.68412        10.72922        -0.28356
C         13.50895        12.13567         0.18533
C         14.93930         9.98076         0.04829
C         14.72645        12.87347         0.64116
C         13.50817        15.00806         0.16963
C         13.44214        16.49764         0.25046
C         14.73665        14.35106         0.51507
C         14.71667        17.25622         0.53117
C         13.56468        19.35418        -0.00062
C         14.78598        18.67126         0.10838
C         15.92619         2.03698         0.61323
C         15.94410         3.48085         0.66700
C         17.08561         1.33248         0.24114
C         17.23200         4.17399         0.68850
C         16.04206         6.38780         0.70870
C         16.06565         7.79708         0.56898
C         17.28930         5.63923         0.70429
C         17.38993         8.54756         0.49291
C         16.06883        10.74764         0.65855
C         15.99841        12.11804         0.80720
C         17.26150         9.99197         1.02090
C         17.16784        12.92067         1.23980
C         15.96397        15.03312         0.68307
C         15.99349        16.50543         0.72417
C         17.21682        14.35391         0.85420
C         17.30312        17.21961         0.52339
C         16.02027        19.27330        -0.17216
C         17.27273        18.59293        -0.05242
C         18.19735         2.07808        -0.44195
C         18.45374         3.41695         0.21810
C         19.49717         1.34967        -0.67755
C         19.60202         4.20306        -0.25257
C         18.50814         6.27663         0.55761
C         18.59647         7.70354         1.04788
C         19.65572         5.59576        -0.00756
C         19.91015         8.34599         0.63391
C         18.28951        10.70383         1.57442
C         18.42881        12.17167         1.55840
C         20.16364         9.64055         1.07936
C         19.80120        12.76844         1.27164
C         18.45585        15.00260         0.72533
C         18.52430        16.39754         0.35930
C         19.75946        14.29268         0.88386
C         19.69384        17.00514        -0.07448
C         18.44717        19.15926        -0.47837
C         19.77838        18.51235        -0.21225
C         20.61240         2.05467        -0.96831
C         20.66057         3.51510        -0.88981
C         21.76772         4.25473        -1.33657
C         20.77508         6.33130        -0.50658
C         20.84298         7.77198        -0.25631
C         21.80443         5.64108        -1.16939
C         21.84240         8.62146        -0.78992
C         21.03217        10.55725         0.46943
C         20.98166        12.00439         0.76222
C         21.88588         9.98630        -0.50701
C         22.11115        12.73436         0.42225
C         20.93618        14.86598         0.20692
C         20.88308        16.22367        -0.31599
C         22.10535        14.12661         0.17947
C         21.91774        16.78078        -1.05521
C         20.82608        18.94949        -1.19887
C         21.83571        18.12042        -1.55963
O         18.18405         3.51561         1.63032
O         14.69711        10.51282        -1.31703
O          7.24884         7.86042        -1.98022
O         11.02821         6.73362        -1.36391
O          5.43315        16.90702         1.68553
O         17.64038        12.76786         2.63665
O          2.88782         8.13268        -2.49548
O         20.10194        13.80885         2.22571
O         19.39362        10.09155         2.16455
O          8.45853         7.53416         1.41511
O          3.25479         3.10200         1.15562
O          3.19724        15.99335        -1.15984
O          6.36545        17.37985        -1.76134
O          4.20258        10.44510        -2.24548
O         12.59004         9.11324        -1.73617
O         13.73123        12.34668         1.62167
O         13.79454        16.98335         1.62958
O          5.93413         3.55255        -1.20285
O          9.87079        18.31139        -1.41184
O         16.73514        17.07711         1.86348
O         17.66862         8.71696        -0.92364
H         16.87129         9.09275        -1.35661
O         20.21633        19.01432         1.10413
H         19.56690        18.69646         1.76816
O         11.37709        15.18564        -2.19953
H         11.35563        14.29783        -2.61508
O         17.67745         2.42456        -1.78150
H         17.54116         1.58823        -2.27476
O          5.98706        14.98925        -2.55230
H          6.18668        15.91006        -2.85124
O          2.35311         5.48207        -2.88271
H          2.41342         6.42454        -3.17397
O         18.48086         7.61200         2.47977
H         18.79608         8.46138         2.86724
O          6.86998         4.58513         2.21822
H          7.48606         5.25295         2.58872
O          5.62299        10.42069         0.69952
H          6.23126        10.89531         1.30724
O         10.60794        16.33675         1.19285
H         11.42327        16.25160         1.73461
H          0.58876         1.20000        -1.26442
H          0.57123         3.60917        -1.83013
H          2.50597         0.12833        -0.15465
H          0.46267         5.63538        -0.53356
H          0.40291         8.03270        -0.28712
H          0.65828         9.77485         0.59818
H          0.60817        12.16196         1.09777
H          0.52880        14.13953         1.25020
H          0.60786        16.51022         1.86636
H          1.84599        18.64391         2.09728
H          4.88161         0.28549         0.76819
H          3.97228        19.88890         1.95205
H          7.31663         0.41450         1.32554
H          6.36069        20.02435         1.27277
H          9.75734         0.42464         1.34104
H          8.54339        20.16500         1.06704
H         12.21577         0.37069         1.25738
H         11.23980        20.33584         0.89661
H         14.65785         0.28256         0.90616
H         13.57426        20.44824        -0.10999
H         17.04869         0.23378         0.17493
H         16.03065        20.31321        -0.53091
H         19.49884         0.24987        -0.72718
H         18.43739        20.17526        -0.90212
H         21.54166         1.53094        -1.24077
H         22.61074         3.74012        -1.81937
H         22.67639         6.19490        -1.54416
H         22.56556         8.21758        -1.51187
H         22.60504        10.61517        -1.05008
H         23.03881        12.19279         0.18978
H         23.03636        14.58120        -0.18481
H         22.80782        16.18804        -1.30528
H         20.78961        19.98488        -1.56811
H         22.62404        18.47008        -2.24200
