         486
 CSIRO Nanostructure Databank - Neutral Graphene Oxide Data Set
C          8.25821        19.06332        -0.39521
C          8.25043        20.45306        -0.24340
C          7.02573        21.21269        -0.20452
C          8.26320        23.33052        -0.11325
C          7.03355        22.57942        -0.13371
C          8.27960        24.72784        -0.09119
C         10.73152        14.67232        -0.81819
C         10.74249        16.14923        -0.75592
C          9.49008        16.94207        -0.68528
C         10.67194        19.01348         0.18239
C          9.46626        18.27791        -0.37053
C         10.76807        20.43748        -0.40387
C          9.48450        21.20603        -0.20769
C         10.79342        23.34165        -0.35458
C          9.49616        22.58468        -0.15606
C         10.75399        24.79191         0.07697
C          9.48633        25.48704         0.02798
C         10.65684        27.64485         0.29632
C          9.47108        26.89277         0.07371
C         10.71834        29.01666         0.10916
C         13.26177        10.34153        -0.76161
C         13.16421        11.71677        -0.85192
C         11.95425        12.49071        -0.89146
C         13.16632        14.61030        -0.46697
C         11.91414        13.92793        -0.82875
C         13.21564        16.01700         0.01887
C         12.01565        16.84757        -0.31004
C         13.17951        18.93652         0.30705
C         11.99720        18.28028         0.08467
C         13.28219        20.44038         0.09546
C         11.95542        21.14721         0.22474
C         13.31424        23.34780         0.21212
C         11.97664        22.62512         0.27303
C         13.17644        24.79555         0.61654
C         11.92397        25.46080         0.43373
C         13.15426        27.64135         0.69029
C         11.84240        26.91299         0.87582
C         13.18819        29.02248         0.39773
C         11.95460        29.75711         0.15878
C         13.18917        31.86791        -0.29638
C         11.97083        31.12904        -0.08505
C         13.22825        33.22163        -0.54666
C         15.79233         7.51948        -0.40000
C         14.62461         8.17911        -0.57896
C         15.76241        10.38775        -0.25928
C         14.60152         9.64483        -0.93539
C         15.72580        11.86556        -0.42159
C         14.45313        12.50589        -0.98434
C         16.11856        14.90321        -0.28479
C         14.24838        13.80974        -0.27974
C         15.82205        16.24477        -0.42267
C         14.54245        16.78687         0.10736
C         15.61789        18.95633         0.57262
C         14.46687        18.26364         0.28162
C         15.60778        20.31516         1.14528
C         14.35088        21.11910         0.93026
C         15.55906        23.25124         1.33858
C         14.43967        22.59795         0.90589
C         15.55498        24.74142         1.38565
C         14.33129        25.50161         1.00220
C         15.62429        27.70221         1.17859
C         14.34410        26.92804         0.94100
C         15.65899        29.06612         0.52232
C         14.45100        29.68941         0.22391
C         15.75004        31.79391        -0.38094
C         14.44384        31.06160        -0.32594
C         15.70383        33.30343        -0.26215
C         14.50362        33.91410        -1.00792
C         15.76778        36.05677        -0.83095
C         14.57425        35.42336        -0.85163
C         18.28154         7.52756        -0.44545
C         17.08468         8.18808        -0.36331
C         18.33497        10.35119        -0.54978
C         17.09644         9.65768        -0.00259
C         18.29374        11.77754        -0.93584
C         17.02556        12.57197        -0.76429
C         18.22946        14.52081        -1.56618
C         17.16227        14.06400        -0.82297
C         18.23846        16.68625        -1.10581
C         16.90715        17.20974        -0.73697
C         18.19007        18.97295         0.61103
C         16.90359        18.47207         0.04904
C         18.20470        20.41000         1.01708
C         16.90157        21.02791         1.44546
C         18.15778        23.30091         1.75046
C         16.82892        22.52407         1.69350
C         18.11118        24.68454         1.16537
C         16.87784        25.46303         1.35304
C         18.14520        27.57533         0.62627
C         16.85041        26.87390         0.84105
C         18.21190        29.05498         0.49382
C         16.92707        29.75560         0.37270
C         18.27356        31.73826        -0.36605
C         16.96949        31.09800         0.05482
C         18.28154        33.26884        -0.27440
C         17.00012        33.96652        -0.64037
C         18.34066        35.99968        -0.81319
C         17.04357        35.32764        -0.80840
C         20.77119         7.56315        -0.44774
C         19.55859         8.22736        -0.43218
C         20.83216        10.42652        -0.44654
C         19.52351         9.68252        -0.54051
C         20.77637        11.85969        -0.93680
C         19.59641        12.49064        -1.11461
C         20.79705        14.82900        -1.34836
C         19.55267        13.89965        -1.58282
C         20.71557        16.42804        -1.24671
C         19.43945        17.01290        -0.58184
C         20.70411        19.05829         0.17566
C         19.45771        18.23635         0.29405
C         20.65971        20.51379         0.49681
C         19.36933        21.11318         0.96301
C         20.66427        23.34204         1.10508
C         19.34590        22.58717         1.09877
C         20.67076        24.76385         1.47711
C         19.35586        25.42468         1.45244
C         20.61248        27.67009         1.28798
C         19.33102        26.91351         1.24265
C         20.67394        28.81303         0.30669
C         19.42534        29.66522         0.34101
C         20.78370        31.71891        -0.52967
C         19.55983        31.17017         0.26798
C         20.71938        32.99422        -1.03028
C         19.40824        33.79622        -1.15793
C         20.82928        35.91503        -0.84147
C         19.52579        35.29956        -0.88710
C         23.23177         7.54714        -0.49578
C         22.04928         8.22783        -0.61512
C         23.25858        10.46556        -0.72875
C         22.01249         9.68264        -1.08031
C         23.25604        11.83164        -0.68803
C         22.07158        12.59052        -1.25016
C         23.20302        14.75045        -0.56698
C         22.02053        14.09565        -0.91620
C         23.27539        16.24960        -0.47313
C         22.01294        17.03679        -0.65426
C         23.24846        19.11550         0.14545
C         21.97723        18.25337         0.30293
C         23.12848        20.47232         0.80655
C         21.94809        21.19262         0.83630
C         23.12204        23.37120         1.21667
C         21.93754        22.61302         1.11457
C         23.12792        24.78025         1.33152
C         21.88453        25.46233         1.54485
C         23.19146        27.70457         1.63414
C         21.88091        26.94428         1.57543
C         23.04931        29.23300         1.46210
C         22.02199        29.56790         0.32360
C         23.34786        31.65540        -0.32436
C         22.05388        30.91419        -0.32080
C         23.71407        32.12273        -1.57001
C         21.66202        33.88631        -1.83312
C         23.26162        35.89075        -1.26439
C         21.96698        35.23594        -1.23672
C         25.83757         7.51969        -0.36781
C         24.54653         8.20997        -0.66086
C         25.70156        10.43037        -0.09957
C         24.52752         9.71168        -0.66728
C         25.66905        11.90219        -0.16954
C         24.47745        12.58508        -0.43395
C         25.66142        14.79141        -0.34492
C         24.41132        14.01223        -0.38340
C         25.64079        16.11101         0.37277
C         24.40568        16.92645         0.27816
C         25.52265        18.81860         1.53046
C         24.43778        18.26258         0.58004
C         25.58344        20.38531         1.63137
C         24.36683        21.17421         1.22737
C         25.64972        23.39973         1.44989
C         24.40448        22.65999         0.81714
C         25.66190        24.79491         0.86976
C         24.37242        25.59819         0.93517
C         25.79076        27.80312         2.09037
C         24.49116        26.95760         1.72686
C         25.74405        29.29520         1.64074
C         24.41935        29.99424         1.34110
C         25.80299        31.89292         0.16868
C         24.48112        31.31384         0.57512
C         25.76252        33.10634        -0.66652
C         24.76315        33.12750        -1.59921
C         25.75348        36.05098        -1.67756
C         24.44929        35.40924        -1.75443
C         28.32440         7.55827        -0.14857
C         27.01019         8.19955        -0.17717
C         28.31285        10.36782         0.35769
C         26.96801         9.66262         0.14158
C         28.22546        11.89113         0.18722
C         26.92862        12.61597         0.00309
C         28.21367        14.78030        -0.01771
C         26.97366        14.06156        -0.35782
C         28.17257        16.27299        -0.04445
C         26.93057        16.78241         0.71766
C         28.21151        18.92802         1.35395
C         26.91446        18.18796         1.27168
C         28.24823        20.41400         1.60212
C         26.92908        21.17966         1.85700
C         28.16126        23.23965         0.71682
C         26.85830        22.45835         0.94281
C         28.12300        24.70782         0.38999
C         26.76253        25.31879         0.27037
C         28.24542        27.78428         1.04258
C         27.18305        27.14404         1.88498
C         28.23611        29.15323         0.89574
C         27.02636        29.98173         1.20217
C         28.30138        32.09073         0.50393
C         26.98416        31.31627         0.52637
C         28.18495        33.49878        -0.09984
C         26.88812        34.07157        -0.59951
C         28.18589        36.02511        -1.53217
C         26.90773        35.37458        -1.34551
C         30.81911         7.67740        -0.23927
C         29.48802         8.27006        -0.27980
C         30.72596        10.47568        -0.35772
C         29.38899         9.76096        -0.54945
C         30.72582        11.95452        -0.26215
C         29.39728        12.65118        -0.49159
C         30.64388        14.81750         0.07762
C         29.41910        14.10632        -0.03501
C         30.62485        16.18003         0.51758
C         29.44964        16.90123         0.44088
C         30.73427        19.00988         0.91450
C         29.40873        18.39336         0.54858
C         30.74303        20.41190         0.91304
C         29.50494        21.15913         1.26672
C         30.61156        23.33490         0.78484
C         29.46474        22.62423         1.03619
C         30.60118        24.78572         0.58450
C         29.37128        25.50797         0.59805
C         30.62368        27.57686         0.37288
C         29.40086        26.93872         0.66664
C         30.67173        29.04603         0.17230
C         29.44747        29.85621         0.41466
C         30.49636        31.79521        -0.71419
C         29.41123        31.25422        -0.09400
C         30.66181        33.26768        -0.82027
C         29.46734        34.14540        -0.53593
C         30.65583        36.02415        -1.66066
C         29.39844        35.44953        -1.22920
C         31.96272         8.35890        -0.49767
C         33.21092        10.61818        -0.75952
C         31.94235         9.79986        -0.95691
C         33.21727        11.97295        -0.71071
C         31.94016        12.72961        -0.66295
C         33.17999        15.06013        -0.31384
C         31.90778        14.22343        -0.40618
C         33.18460        15.97969         0.93730
C         31.86128        16.79537         1.18175
C         33.16993        18.98443         0.97510
C         31.93663        18.28986         0.91395
C         33.17321        20.39853         0.93462
C         31.95335        21.11122         0.87065
C         33.15632        23.29603         0.67802
C         31.85839        22.55353         0.40298
C         33.14370        24.77773         0.60912
C         31.84204        25.48704         0.47860
C         33.11377        27.65646         0.10261
C         31.84506        26.87539         0.28116
C         33.04039        29.01117        -0.52957
C         31.64061        29.46559        -0.92345
C         32.83435        31.58989        -1.81139
C         31.58326        30.94926        -1.28844
C         32.89103        33.06810        -1.89007
C         31.81518        33.84272        -1.56304
C         31.78718        35.27426        -1.80135
C         34.47874        12.80167        -0.91248
C         35.59794        14.73420         0.15875
C         34.44881        14.19852        -0.29175
C         35.72597        16.07390         0.85848
C         34.42593        16.85448         0.86289
C         35.72232        18.94719         0.92794
C         34.41902        18.21397         0.92730
C         35.75491        20.43942         1.01115
C         34.43982        21.21636         1.17241
C         35.66740        23.31534         0.34124
C         34.37091        22.46751         0.26740
C         35.51342        24.64305        -0.42667
C         34.43314        25.47097         0.25914
C         35.55037        27.53107        -0.75860
C         34.42199        26.93655         0.00919
C         35.43316        28.78670        -1.31331
C         34.21095        29.56731        -1.26831
C         34.08841        30.79514        -1.86168
C         36.88532        16.87618         0.31769
C         38.06184        19.01230        -0.05013
C         36.90924        18.23361         0.37604
C         38.13839        20.37520         0.05011
C         37.04644        21.21879         0.68155
C         38.11554        23.29116        -0.27702
C         36.84412        22.47051        -0.20915
C         38.05850        24.65531        -0.46610
C         36.82476        25.40700        -0.51320
C         36.78014        26.75989        -0.78342
C         39.31476        21.13775        -0.31954
C         39.32375        22.50897        -0.37884
O         26.57645        30.04036         2.59121
O         27.49160        26.18991         2.58283
O         23.68138        27.13285         2.90479
O         26.29444        15.89548         1.67779
O         20.64246        20.01903        -0.91267
O         23.01919        17.01710        -1.69356
O         11.70834        16.72981        -1.74473
O         27.74147        18.18163         2.49892
O         16.17264        25.25575         2.64400
O         11.70928        21.85410         1.48065
O         13.87660        16.19132         1.29227
O         30.51733        33.99161         0.45862
O         16.82969        21.57493         2.79740
O         21.75298        33.74816        -3.05100
O         31.54482        16.71189         2.55202
O         33.23915        24.02311         1.89700
O         18.19510        15.77290        -2.16711
O         18.83629        18.08288         1.60044
O         22.40732        29.66863        -1.07903
O         21.10059        27.64783         2.63451
O         15.27360        14.19040         0.58575
O         19.82086        23.16922        -0.13700
O         26.39611        14.57853        -1.61370
O         31.74161        13.64798        -1.76775
O         28.24884        23.71868        -0.69704
O         20.38964        14.33886        -2.68316
O         31.74113        31.10729        -2.74550
O         29.17326        12.67832        -1.86295
O         26.05286         9.93002         1.25672
O         24.49033        34.18047        -2.47216
O         24.45439        22.82845        -0.54946
O         27.36722        34.33711         0.77658
O         17.43430        26.93179        -0.49304
O         31.71840        22.49780        -1.00556
O         15.44865        11.27316         0.87576
O         24.30019        31.28341         2.01230
O         17.41036        12.02243        -2.09003
O         14.60528        20.48244         2.20215
O         34.88916        26.37453         1.28981
O         24.63614        20.88405         2.63697
O         24.70534         8.98662        -1.93750
O         35.99109        19.62608         2.21888
O         16.73431        18.48534        -1.44135
O         29.19142        20.74633         2.67505
O         30.58672        29.79914         1.39613
O         30.91833        11.14013         0.92644
O         19.05236        26.37605         2.55642
O         33.20922        28.88128         0.90808
O         15.17991        31.20371        -1.61016
O         27.61694        12.49687         1.33644
O         18.52743        33.70176         1.09545
H         17.65965        33.71055         1.56102
O         22.29794        12.51382        -2.68529
H         21.60625        13.05954        -3.13234
O         18.52572        23.43624         3.14511
H         17.81432        23.94717         3.59171
O         28.68955        10.09094         1.71015
H         28.02458        10.52690         2.28790
O         11.59788        26.88381         2.32224
H         12.37245        26.45724         2.74716
O         33.20526        15.91774        -1.47274
H         32.91732        15.38183        -2.24451
O         26.93667        21.52266         3.23900
H         27.86973        21.45756         3.56474
O         37.57279        21.68394         1.94211
H         37.51759        20.92422         2.56500
O         31.23572        28.70207        -2.08443
H         31.45988        29.25570        -2.87251
O         19.77206        31.53756         1.63903
H         19.63606        32.51291         1.73342
O         26.52495        21.91263        -0.32964
H         26.79434        22.55881        -1.02734
O         20.58112        28.06670        -0.94254
H         21.04429        28.60201        -1.63323
O         26.67151        26.45867        -0.49554
H         27.48969        26.55653        -1.02433
O         21.84511         9.67635        -2.51037
H         22.71582         9.44489        -2.90431
O         14.68345        12.74232        -2.39971
H         13.87799        13.15082        -2.78236
O         35.62620        12.07515        -0.48775
H         35.58956        11.98141         0.48626
O         31.71637         9.76694        -2.40885
H         31.80764        10.68327        -2.75028
O         15.54436        33.57049         1.17222
H         14.59899        33.43408         1.40252
O         11.02200        23.30125        -1.80480
H         11.96207        23.56847        -1.96136
O         36.02039        15.75699         2.25210
H         35.17989        15.37874         2.61200
O         25.74754        27.86705         3.53345
H         26.40022        28.54567         3.81798
O         36.63530        22.07140        -1.57813
H         35.75288        21.62885        -1.65652
O         14.62397        33.67496        -2.43038
H         14.67084        32.69603        -2.55951
O         33.33246        15.09754         2.07041
H         32.71182        15.49240         2.75643
O         21.13461        10.47828         0.98260
H         20.29116        10.48543         1.48320
O         14.88836         9.71393        -2.36879
H         14.97418        10.66294        -2.62507
O         18.97705        33.66907        -2.53142
H         19.77140        33.72538        -3.11188
O         24.04230        26.02577        -0.41608
H         24.08693        25.22651        -0.98948
O         25.49573        23.51543         2.83309
H         25.41566        22.61900         3.24652
O         23.44950        19.46194        -1.24034
H         22.60798        19.84200        -1.58548
O         25.09083        18.32942         2.81297
H         25.87440        18.32912         3.40907
O         23.05156        31.78242        -2.68776
H         23.26714        32.40402        -3.41498
O         18.37362        31.33293        -1.75366
H         17.64064        31.74467        -2.25979
O         29.15814        18.93446        -0.79108
H         28.84463        18.21670        -1.39410
O         28.64963        32.26983         1.89194
H         28.07544        32.98556         2.24362
O         34.17382        21.99758        -1.07017
H         33.20060        22.13683        -1.33931
O         35.93518        23.69611         1.68193
H         35.57843        23.01695         2.30683
O         17.31579         9.67236         1.44404
H         16.72225        10.36679         1.81988
O         20.69201        16.90402        -2.59361
H         20.06353        16.34567        -3.10465
O         35.06561        24.39980        -1.77441
H         35.64940        23.69902        -2.15316
O         22.41153        29.76570         2.62507
H         22.80741        29.34290         3.41688
O         28.95211         9.94475        -1.90734
H         29.72380         9.77048        -2.49631
O         11.02673        20.35762        -1.82949
H         10.91104        21.27155        -2.19026
O         13.70973        20.58396        -1.28375
H         12.96504        20.27216        -1.85490
O         34.39359        21.65908         2.54800
H         34.68719        20.89479         3.09663
O         15.70156        27.95742         2.61465
H         15.82597        27.08144         3.05765
O         27.97412        16.68372        -1.43741
H         27.44737        15.97098        -1.89309
O         13.66178        23.37780        -1.21746
H         14.52400        23.83392        -1.32202
O         10.38825        19.15543         1.59922
H         11.01637        19.80102         1.99130
O         21.93542        17.71896         1.64739
H         22.81932        17.78926         2.07348
H          7.30000        18.54451        -0.55710
H          6.06959        20.66957        -0.23111
H          6.08341        23.13283        -0.10356
H          7.32308        25.27203        -0.10328
H          9.76067        14.15877        -0.88625
H          8.55352        16.44437        -0.98490
H          8.52931        27.42518        -0.13124
H          9.80926        29.55610        -0.20040
H         12.34976         9.72422        -0.72598
H         10.99580        11.95165        -0.94404
H         11.01413        31.66119        -0.19872
H         12.28059        33.78334        -0.57732
H         15.78185         6.42625        -0.26478
H         13.67458         7.62399        -0.59030
H         15.80541        37.15668        -0.80325
H         13.63957        36.00363        -0.88810
H         18.29369         6.43632        -0.59490
H         18.35757        37.09717        -0.72282
H         20.77746         6.46543        -0.35249
H         20.90240        36.97334        -0.54144
H         23.22230         6.48631        -0.19876
H         23.29983        36.87495        -0.77102
H         25.86071         6.42610        -0.49985
H         25.83150        37.11568        -1.95450
H         28.35790         6.46069        -0.05718
H         28.17932        36.99496        -2.05366
H         30.88393         6.61362         0.04051
H         30.66521        37.08370        -1.95654
H         32.93170         7.84055        -0.43584
H         34.17699        10.09382        -0.84557
H         33.78463        33.52966        -2.33822
H         32.70194        35.74343        -2.19308
H         34.58089        12.93910        -2.02777
H         36.51374        14.12007         0.12781
H         36.29057        29.22017        -1.85067
H         34.94897        31.23747        -2.38684
H         37.75949        16.32943        -0.06974
H         38.91535        18.45529        -0.46923
H         39.00019        25.21662        -0.58367
H         37.71485        27.29478        -1.01707
H         40.24176        20.58323        -0.53409
H         40.26680        23.03309        -0.59915
