         276
 CSIRO Nanostructure Databank - Neutral Graphene Oxide Data Set
C        -11.01555         0.59568        -1.24537
C         -9.81907         1.41525        -1.12756
C         -8.57574         0.74234        -0.66017
C         -7.31244         1.17856        -1.39097
C         -6.00469         0.48939        -0.89452
C         -4.69998         1.25627        -0.80855
C         -3.46597         0.45814        -0.34751
C         -2.49384         1.35560         0.43875
C         -1.17137         0.70839         0.70804
C         -0.00378         1.52491         1.12931
C          1.30550         0.79753         1.41343
C          2.49257         1.54074         0.82208
C          3.78271         0.79013         0.87715
C          5.05108         1.54554         1.01183
C          6.24170         0.89961         1.32724
C          7.57946         1.46279         0.93385
C          8.76017         0.63309         0.30370
C          9.37607         1.36543        -0.92912
C         10.67949         0.67633        -1.28121
C         -9.76520         2.76454        -1.32336
C         -8.50260         3.49587        -1.24772
C         -7.24146         2.71799        -1.47657
C         -5.93949         3.45552        -1.36380
C         -4.67739         2.75351        -0.91187
C         -3.75286         3.62448        -0.04147
C         -2.60448         2.83203         0.60396
C         -1.43945         3.52389         1.31501
C         -0.08811         2.87701         1.30500
C          1.19512         3.70330         1.59274
C          2.42479         3.07934         0.80806
C          3.79758         3.68233         1.09830
C          4.98644         2.99804         0.97147
C          6.30282         3.72547         0.92548
C          7.57446         2.94089         0.72041
C          8.65913         3.60269        -0.06294
C          9.53694         2.85984        -0.76119
C         -8.46356         4.82607        -0.93414
C         -7.24271         5.65511        -1.07248
C         -5.93727         4.96250        -1.34031
C         -4.57569         5.65637        -1.40429
C         -3.43009         4.98944        -0.63994
C         -2.22469         5.64244        -0.53872
C         -0.89104         4.97396        -0.58653
C          0.37863         5.74153        -0.15703
C          1.10802         5.19561         1.14049
C          2.49460         5.85707         1.34183
C          3.87380         5.15836         1.44623
C          4.90231         5.77936         0.47345
C          6.26082         5.16574         0.49597
C          7.40929         5.78402        -0.31915
C          8.76285         5.11635         0.05646
C         -7.17719         7.06011        -0.62384
C         -6.02831         7.77379        -0.73166
C         -4.72653         7.23057        -1.33985
C         -3.50433         7.89271        -0.69638
C         -2.24938         7.13478        -0.42020
C         -1.30769         7.71782         0.66084
C          0.06073         7.01879         0.68853
C          1.22723         7.93855         0.62526
C          2.47812         7.29198         0.95824
C          3.73918         7.93287         0.52510
C          4.65481         6.97805        -0.14608
C          6.77903         8.18524         0.45094
C          7.47164         7.31704        -0.36404
C         -6.05055         9.23691        -0.60099
C         -4.93125         9.92702        -0.31942
C         -3.75314         9.13646         0.18521
C         -2.46330         9.89650         0.29553
C         -1.25270         9.23620         0.43674
C         -0.04337         9.96066         0.31613
C          1.24104         9.33562         0.37328
C          2.46185        10.06322         0.25257
C          3.78226         9.40802         0.31102
C          5.04012         9.97541        -0.26509
C          6.30102         9.48711        -0.12184
C        -11.09411        -0.66933        -0.77272
C        -10.04682        -1.30185         0.13310
C         -8.69346        -0.58921        -0.02320
C         -7.46237        -1.43050         0.22995
C         -6.12150        -0.80526        -0.12610
C         -5.00102        -1.37735         0.72196
C         -3.67858        -0.73908         0.57499
C         -2.45478        -1.54290         0.89389
C         -1.16867        -0.78431         0.91860
C          0.05045        -1.40367         1.59293
C          1.30916        -0.71221         1.02249
C          2.62265        -1.39840         1.34961
C          3.77578        -0.71283         0.98565
C          4.80654        -1.40879         0.24939
C          5.84155        -0.66100        -0.53858
C          7.16796        -1.38650        -0.47945
C          8.50309        -0.80431        -0.18678
C          9.63645        -1.49856        -0.87985
C         10.78234        -0.66714        -1.24559
C         -9.98101        -2.81751        -0.01067
C         -8.82154        -3.54998        -0.17501
C         -7.59714        -2.76857        -0.51316
C         -6.15455        -3.64450         1.01508
C         -5.01605        -2.84664         1.00402
C         -3.75899        -3.66654         0.69280
C         -2.49584        -2.88922         1.08607
C         -1.31201        -3.56807         1.79804
C          0.01539        -2.91837         1.40010
C          1.31632        -3.65402         1.38007
C          2.61030        -2.86470         1.36722
C          3.75751        -3.59288         0.62304
C          4.77059        -2.76493        -0.03185
C          5.70811        -3.36368        -1.03882
C          7.04745        -2.65201        -1.32993
C          8.25756        -3.60665        -1.09389
C          9.52870        -2.79589        -1.27506
C         -8.69760        -4.97354        -0.22030
C         -7.47708        -5.69529         0.02237
C         -6.36365        -5.08582         0.80779
C         -5.14865        -5.86995         1.17778
C         -3.84602        -5.06460         1.34957
C         -2.56570        -5.82139         1.54157
C         -1.23863        -5.10205         1.70692
C          0.06858        -5.86506         1.72658
C          1.44700        -5.13002         1.76171
C          2.50417        -5.78927         0.89836
C          3.45403        -4.97059         0.12133
C          4.42178        -5.60953        -0.83862
C          5.60913        -4.82743        -1.37605
C          6.83595        -5.57752        -1.78881
C          8.15785        -4.83093        -2.02949
C         -7.39207        -7.03881        -0.29318
C         -6.34003        -8.00659         0.20880
C         -5.11226        -7.31865         0.82169
C         -3.76316        -7.93724         0.57708
C         -2.52107        -7.24132         1.02790
C         -1.26166        -8.06028         1.14966
C          0.04007        -7.36271         1.42142
C          1.32456        -8.05903         1.05991
C          2.58739        -7.23911         0.84847
C          3.82957        -7.88360         0.24568
C          4.47401        -7.10962        -0.89777
C          5.66343        -7.77577        -1.51644
C          6.81951        -6.92702        -1.88961
C         -5.92776        -9.01487        -0.84603
C         -4.77874        -9.69961        -0.77273
C         -3.77562        -9.44010         0.33751
C         -2.39813        -9.96659         0.01262
C         -1.24364        -9.36057         0.40778
C          0.04108        -9.96365         0.11387
C          1.25200        -9.38540         0.40409
C          2.49090       -10.01401        -0.01738
C          3.67057        -9.33954        -0.13757
C          4.89489        -9.95537        -0.63701
C          5.87775        -9.21114        -1.19916
O         -2.35737         7.97518        -1.59996
O          4.18921         8.78361         1.64607
O         -5.82163        -0.80290        -1.54617
O         -4.20485         1.96549        -2.02562
O          3.05168         1.08835        -0.44495
O          5.12228        -3.79417        -2.30923
O         -6.44437         3.02891        -2.66953
O          5.61628         0.20571        -1.36338
O         -3.36262        -5.34616         2.69301
O         -1.89845         7.49075         1.95633
O          6.57201         4.80773         1.88325
O          3.70525        -3.48645         2.07242
O         -4.50350        -0.46257         1.76110
O          2.29623        -7.92128         2.15233
O         -0.77535         3.86948        -1.11721
O          3.16606        -5.05998        -1.33707
O          2.44225         6.87005         2.39301
O         -0.85717        -0.20481        -0.37367
O          0.54420        -3.43343         0.15428
O         -6.89767        -3.08674        -1.46502
O          4.37589        -7.60914        -2.24853
O          8.09215         2.35495         1.98441
O         -0.66828        -8.11410         2.47007
O         -2.95224        -7.22127        -0.39456
O         -6.71704         5.50245        -2.45741
O         -0.64087        -5.60058         2.95510
O          7.81281        -1.64595         0.81319
O         -8.55178         0.64043         0.80476
O         -3.14503         1.90254         1.62096
O         -1.69353         4.52454         1.98226
O         -7.03215        -4.13440         1.89703
O         -5.33230        -6.90186         2.19861
O          4.27890         5.23040         2.81635
H          3.99193         6.10474         3.16471
O          7.09527         5.38190        -1.69288
H          7.81728         5.70028        -2.27580
O          8.42353         1.14565        -2.00277
H          8.78097         1.53715        -2.82626
O          8.32723        -4.47559        -3.39662
H          7.86859        -3.61383        -3.54569
O         -2.92383        -0.11189        -1.53804
H         -2.89592         0.57913        -2.23591
O          1.47914         3.70311         2.98419
H          0.88936         4.35133         3.42252
O          8.17576        -4.17112         0.22752
H          8.28819        -3.43837         0.87848
O          6.56974         7.87665         1.74088
H          5.85963         8.45183         2.11787
O          7.05404        -2.22371        -2.70414
H          6.17889        -2.46494        -3.09377
O        -10.51834        -1.05983         1.48613
H        -10.24245        -0.14494         1.72009
O         -1.55183        -3.27049         3.19959
H         -2.19942        -3.94047         3.53208
O          9.14759         5.47651         1.37691
H          8.38367         5.27415         1.97250
O          5.07286         7.29865        -1.39998
H          5.66391         6.57621        -1.73813
O         -7.54744         0.71586        -2.73200
H         -6.88427         1.15432        -3.31181
O         -3.63693        -3.97849        -0.71609
H         -3.65294        -3.14384        -1.23224
O         -6.99094        -8.75735         1.26954
H         -6.82070        -8.26649         2.10670
O         -4.64148         4.02065         1.05080
H         -4.08591         4.21048         1.83977
O          1.89466        -5.18628         3.12983
H          1.96405        -6.13549         3.37808
O         -4.23622       -10.05954         1.56119
H         -4.48809       -10.98570         1.36852
O          9.75619         0.50949         1.32321
H          9.69270         1.31629         1.88885
O         -4.78446         7.71018        -2.69285
H         -5.35146         7.08558        -3.19836
O         -4.20163         8.67608         1.49091
H         -3.42568         8.29252         1.97289
O          1.21050         5.95915        -1.27924
H          1.45179         5.06985        -1.62971
O          0.20901         6.12048         1.91022
H         -1.53760         6.64278         2.31512
O         -7.48811        -1.66925         1.64959
H         -7.69227        -0.81509         2.08984
O          6.18666        -0.21432         2.08425
H          7.05290        -0.69113         2.09574
O          2.13779         3.45163        -0.57842
H          2.60488         2.78129        -1.13634
O         -0.00973        -1.14934         3.01035
H         -0.63686        -1.79951         3.42299
O          4.83149        -7.81701         1.30074
H          4.39726        -8.13051         2.12598
O         -4.11142         5.36045        -2.75688
H         -4.50388         4.51200        -3.05571
O          1.56038         0.90843         2.82822
H          0.92330         0.32887         3.31215
O          1.32349        -0.91562        -0.39955
H          1.99487        -0.30136        -0.79146
H         11.70961        -1.16916        -1.55989
H         11.53472         1.29157        -1.60034
H         10.35386         3.35279        -1.31492
H          9.55606         5.48236        -0.64709
H          7.66652         7.69535        -1.38216
H          7.08534        10.04482        -0.66351
H          4.92769        10.91464        -0.83164
H          2.40832        11.14000         0.03712
H         -0.10401        11.05020         0.17219
H         -2.46432        10.98825         0.14692
H         -4.92256        11.02577        -0.27630
H         -6.99897         9.75422        -0.81380
H         -8.10518         7.55170        -0.29460
H         -9.40456         5.34869        -0.70209
H        -10.68093         3.33316        -1.54535
H        -11.87833         1.03388        -1.77098
H        -12.03263        -1.22963        -0.90154
H        -10.93118        -3.34496         0.17033
H         -9.60190        -5.57572        -0.40212
H         -8.24569        -7.50036        -0.81367
H         -6.64486        -9.22684        -1.65416
H         -4.53592       -10.45751        -1.53450
H         -2.33535       -10.92984        -0.51958
H          0.03177       -10.93457        -0.40486
H          2.43531       -11.06230        -0.34972
H          5.00851       -11.04603        -0.54375
H          6.81118        -9.68433        -1.53886
H          7.75129        -7.45034        -2.15877
H          8.98829        -5.53820        -1.76741
H         10.36701        -3.26045        -1.81785
