         344
 CSIRO Nanostructure Databank - Neutral Graphene Oxide Data Set
C          1.56820         3.82962         2.71110
C          0.44624         4.57063         3.05399
C          1.50149         6.61015         2.22194
C          0.42075         5.95476         2.83963
C          1.48213         8.12488         2.12779
C          0.17971         8.74259         1.69093
C          1.34011        10.80336         0.99616
C          0.13877        10.03375         1.29443
C          1.25536        12.18035         0.65435
C          0.12748        13.00168         0.92497
C          1.22793        15.00007        -0.02712
C          0.10487        14.33886         0.57764
C          1.11242        16.39204        -0.63666
C         -0.04636        17.22197        -0.18131
C          1.20324        19.28743        -0.55558
C          0.01064        18.58980        -0.22277
C          1.21035        20.76214        -0.87176
C         -0.00775        21.52016        -0.41654
C          1.32333        23.45761         0.45436
C          0.04081        22.74407         0.11601
C          1.28362        24.94719         0.18903
C          0.10763        25.69934         0.35684
C          1.23413        27.80916        -0.37118
C          0.07298        27.07539         0.22671
C          1.29789        29.27354        -0.01556
C          3.88912         3.73652         1.87902
C          2.69397         4.46802         2.12675
C          3.75762         6.49852         1.07886
C          2.63597         5.86886         1.86270
C          3.82197         8.00251         1.23821
C          2.65747         8.72153         1.38000
C          3.76943        10.72762         0.45450
C          2.58882        10.10517         0.96596
C          3.67418        12.06539        -0.15389
C          2.38315        12.83272        -0.02765
C          3.56584        14.93149        -0.95265
C          2.38729        14.28923        -0.24136
C          3.70633        16.41540        -0.54607
C          2.40393        17.16519        -0.62127
C          3.70352        19.27008        -0.80418
C          2.42037        18.55484        -0.68826
C          3.72544        20.69602        -0.66293
C          2.50932        21.43227        -0.47601
C          3.77739        23.50768        -0.27348
C          2.54283        22.78150        -0.15194
C          3.80085        24.92786        -0.19784
C          2.59655        25.67634         0.31684
C          3.72828        27.80457        -0.30377
C          2.55208        27.11174        -0.13266
C          3.72559        29.26233        -0.33403
C          2.46570        29.94598        -0.07162
C          6.31512         3.67002         1.43931
C          5.09332         4.37530         1.48770
C          6.26558         6.42015         0.83534
C          5.08459         5.78422         1.19385
C          6.31876         7.89829         0.65915
C          5.07720         8.69838         0.90965
C          6.20967        10.73075        -0.05467
C          5.00857        10.08792         0.44385
C          6.18695        12.07039        -0.39709
C          4.94411        12.84199        -0.25361
C          6.16139        14.94343        -1.10823
C          4.90423        14.27658        -0.63835
C          6.15203        16.37903        -1.25242
C          4.82382        17.10881        -1.35949
C          6.15719        19.24228        -1.03234
C          4.89815        18.57377        -0.99902
C          6.19010        20.65366        -0.84915
C          4.96683        21.37731        -0.67331
C          6.19006        23.51925        -0.81470
C          4.97894        22.80441        -0.58021
C          6.14302        24.92512        -0.90558
C          4.96029        25.63339        -0.55087
C          6.12972        27.80899        -0.78942
C          4.98181        27.09610        -0.51840
C          6.15327        29.25211        -0.65273
C          4.90910        29.94906        -0.45390
C          8.77486         3.63942         1.15770
C          7.53236         4.32584         1.13978
C          8.73905         6.42501         0.58746
C          7.51179         5.72503         0.82755
C          8.73578         7.81508         0.15008
C          7.41590         8.45938        -0.22124
C          8.60614        10.61548        -0.59580
C          7.44450         9.97556        -0.22497
C          8.64382        12.03355        -0.88706
C          7.32200        12.70659        -1.14316
C          8.60662        14.87022        -1.41691
C          7.35086        14.22161        -1.13979
C          8.58100        16.33190        -1.84184
C          7.33710        17.07644        -1.41302
C          8.61750        19.19315        -1.20220
C          7.37588        18.51336        -1.26166
C          8.63705        20.59411        -0.95466
C          7.43927        21.34185        -0.84618
C          8.64606        23.49716        -0.97065
C          7.45046        22.79387        -0.87704
C          8.64067        24.91630        -1.35470
C          7.32798        25.65582        -1.39134
C          8.64274        27.80408        -0.96186
C          7.34126        27.18310        -1.44023
C          8.62055        29.19012        -0.64958
C          7.36942        29.91177        -0.63178
C         11.23393         3.62762         0.92950
C          9.98189         4.32807         0.95347
C         11.24693         6.51362         0.72656
C          9.95479         5.73955         0.70703
C         11.18144         7.82872        -0.01371
C          9.89684         8.45984        -0.20298
C         11.10742        10.58860        -0.77027
C          9.80508         9.76878        -0.97470
C         11.06340        11.91370        -1.54792
C          9.80809        12.70840        -1.21382
C         11.08714        14.80673        -1.75731
C          9.78675        14.13044        -1.47204
C         11.12074        16.31738        -1.77750
C          9.86506        17.07651        -1.56405
C         11.13193        19.17021        -1.33064
C          9.87890        18.44966        -1.35644
C         11.16495        20.55076        -1.12746
C          9.92631        21.27921        -0.78693
C         11.15912        23.50559        -1.25479
C          9.93996        22.82185        -0.80309
C         11.13605        24.94990        -1.40157
C          9.89196        25.69128        -1.24162
C         11.08852        27.76121        -0.58400
C          9.87490        27.08526        -0.99578
C         11.02417        29.13242        -0.16607
C          9.80507        29.84536        -0.27626
C         13.64272         3.51976         0.40960
C         12.43417         4.26105         0.58126
C         13.61361         6.31756        -0.06120
C         12.45139         5.68660         0.34744
C         13.61792         7.74180        -0.35241
C         12.35077         8.43339        -0.41393
C         13.60189        10.54129        -0.94920
C         12.33156         9.74645        -1.15985
C         13.55608        11.99228        -1.04921
C         12.35075        12.68774        -1.33481
C         13.56120        14.82126        -1.27416
C         12.35346        14.09027        -1.43922
C         13.57734        16.28025        -1.35189
C         12.41057        16.99519        -1.53869
C         13.64915        19.16704        -1.23393
C         12.41543        18.48540        -1.76975
C         13.63196        20.58052        -1.09084
C         12.39031        21.27750        -1.16617
C         13.72553        23.48136        -0.99094
C         12.39528        22.73967        -1.31280
C         13.81950        25.00126        -0.85821
C         12.48759        25.73778        -1.05357
C         13.39673        27.63389         0.27548
C         12.31584        27.06455        -0.44726
C         13.31410        28.99704         0.70351
C         12.15948        29.74249         0.41218
C         16.05866         3.41796        -0.12650
C         14.84089         4.14656         0.05868
C         16.04282         6.23916        -0.43054
C         14.84927         5.57662        -0.17350
C         16.07404         7.66941        -0.91209
C         14.78930         8.41811        -0.67226
C         16.09616        10.59303        -1.03083
C         14.78949         9.84385        -0.86165
C         15.96102        11.95947        -0.31503
C         14.75079        12.71963        -0.84026
C         16.03548        14.83724        -0.94186
C         14.76403        14.11734        -0.98383
C         16.02857        16.29114        -0.95735
C         14.83424        16.98858        -1.12254
C         16.00094        19.10913        -0.54128
C         14.82333        18.43372        -0.99557
C         15.98034        20.51781        -0.33333
C         14.82019        21.26770        -0.66969
C         15.84749        23.28351         0.29667
C         14.81215        22.67113        -0.42381
C         15.61424        24.59901         0.99405
C         14.60811        25.48735         0.32002
C         15.57890        27.43133         1.47196
C         14.53762        26.83381         0.67096
C         15.48139        28.80074         1.83860
C         14.38614        29.56220         1.46086
C         18.51584         3.38443        -0.52339
C         17.25947         4.07577        -0.36388
C         18.49387         6.21664        -0.38766
C         17.27953         5.52094        -0.40650
C         18.49317         7.66151         0.04454
C         17.29113         8.42566        -0.45303
C         18.51781        10.52418        -0.34785
C         17.32168         9.81691        -0.54985
C         18.54366        11.99236        -0.45279
C         17.25952        12.74970        -0.42557
C         18.53090        14.89981        -1.06534
C         17.22675        14.15826        -0.86228
C         18.45117        16.27290        -0.44687
C         17.24476        16.96681        -0.55632
C         18.32386        19.03339         0.26678
C         17.19521        18.38037        -0.24770
C         18.31232        20.44368         0.47823
C         17.12095        21.18546         0.20510
C         18.18870        23.22811         1.11688
C         17.04612        22.56411         0.55370
C         18.11306        24.62037         1.47294
C         16.87951        25.33342         1.36062
C         17.96153        27.37457         2.21635
C         16.79328        26.68877         1.71165
C         17.87549        28.72899         2.63374
C         16.54054        29.42780         2.71037
C         19.68706         4.07323        -0.65404
C         20.92201         6.23625        -0.61947
C         19.72690         5.51379        -0.54752
C         20.93213         7.65663        -0.49307
C         19.80036         8.37779        -0.21389
C         21.02466        10.62502        -0.30316
C         19.79261         9.85861         0.12125
C         21.01889        11.87556        -0.77918
C         19.76185        12.64787        -1.10385
C         20.79307        14.70802        -0.03190
C         19.76046        14.10549        -0.67910
C         20.73494        16.08683         0.36894
C         19.60713        16.85390         0.16970
C         20.76051        19.03905         0.78170
C         19.48913        18.23030         0.79553
C         20.72843        20.38473         0.92615
C         19.48344        21.12605         0.91355
C         20.56441        23.22648         1.71340
C         19.41896        22.51855         1.23934
C         20.49681        24.56243         2.03111
C         19.28247        25.29674         1.92352
C         20.35238        27.41478         2.72601
C         19.21209        26.69559         2.28707
C         20.25767        28.74818         3.08952
C         19.01606        29.40349         3.05957
O         10.06024        22.05457         0.45691
O         13.37883        23.13588        -2.35075
O          2.78524        12.12557        -1.29702
O          5.02039        13.90579         0.78171
O          9.57799         9.46970        -2.34226
O         11.11114        15.52040        -3.05336
O         18.10151        12.64908         0.80169
O          7.88522        25.11010        -2.64081
O          6.17235         8.55712         1.94841
O         12.02510        25.58898        -2.38900
O         12.47215        18.64323        -3.23538
H         11.80417        18.03691        -3.62278
O          0.86354        16.09329        -2.09188
H          0.77453        16.96095        -2.54549
O         18.34223         7.61174         1.53514
H         19.00380         6.96610         1.86640
O          2.81844        25.75308         1.80068
H          2.11764        26.34024         2.15991
O          7.15479         8.07187        -1.60021
H          7.91245         8.45325        -2.12690
O         19.19242        17.97191         2.21679
H         19.06728        18.84265         2.65048
O         16.28516        10.85543        -2.44006
H         16.31485         9.98701        -2.89886
O          3.36807         6.32938        -0.33932
H          4.14027         6.56540        -0.89768
O          1.49434        23.33136         1.90845
H          2.18647        23.98979         2.16764
O          1.67866         8.56931         3.51773
H          1.69140         9.55006         3.51533
O         16.67634        30.82607         2.43199
H         16.97545        30.92425         1.50503
O         16.19621         7.60548        -2.39016
H         15.35771         7.22731        -2.73405
O         18.62911        15.11684        -2.53534
H         19.38987        15.71664        -2.69151
O         19.59778        12.57297        -2.54066
H         19.09668        13.37367        -2.83845
O          8.48722        16.28199        -3.31507
H          9.34303        15.89384        -3.62839
O         14.98799        24.19756         2.28964
H         15.69043        23.78508         2.83676
O         11.21315        10.93045         0.62145
H         11.35451        10.10829         1.13869
O          4.48010        17.10860        -2.76790
H          4.32989        16.16855        -3.03793
O         14.61566        25.41065        -2.01540
H         14.15663        25.03782        -2.80444
O         11.45194         6.88138         2.14782
H         11.48255         6.04560         2.66089
O         12.31713         9.39707        -2.56308
H         12.01497        10.19743        -3.06326
O          4.09778        16.41593         0.85063
H          4.18460        17.34814         1.14134
O          1.19349        20.82582        -2.34451
H          1.32224        21.76345        -2.60170
O         19.75691         9.93925         1.58464
H         19.07614         9.28544         1.88653
O          1.01944        27.76391        -1.83758
H          1.76477        28.25033        -2.25109
O         15.70233        11.69687         1.07986
H         16.53244        11.90972         1.57009
O         10.92993        11.61374        -2.96402
H         10.24437        10.86861        -3.01197
O          3.31709        14.80714        -2.36905
H          2.38757        15.11903        -2.53051
O          7.03301        12.37580        -2.56328
H          7.85618        12.53174        -3.07596
O          7.23050        27.57167        -2.84557
H          7.65598        26.84324        -3.35968
H          1.60440         2.74861         2.90830
H         -0.41779         4.07650         3.51981
H         -0.45628         6.53354         3.16113
H         -0.75672         8.18189         1.82633
H         -0.83365        10.50036         1.07827
H         -0.75524        12.56591         1.41423
H         -0.80852        14.91370         0.78199
H         -1.00579        16.73259         0.03528
H         -0.89778        19.16223         0.01285
H         -0.98979        21.07786        -0.64452
H         -0.90310        23.24027         0.38799
H         -0.83257        25.18075         0.60036
H         -0.87094        27.61773         0.38119
H          0.35429        29.80594         0.17752
H          3.90532         2.65796         2.09719
H          2.49629        31.03227         0.10432
H          6.32614         2.59601         1.67837
H          4.92074        31.04746        -0.38722
H          8.79165         2.55711         1.35340
H          7.39714        31.00137        -0.48128
H         11.23035         2.54120         1.10413
H          9.77411        30.90681         0.01026
H         13.62376         2.43020         0.56321
H         12.10081        30.79452         0.72878
H         16.04144         2.32047        -0.04689
H         14.32812        30.61547         1.77067
H         18.51307         2.28466        -0.54553
H         16.18512        29.35791         3.77913
H         20.63557         3.53381        -0.79286
H         21.87010         5.70802        -0.79183
H         21.89615         8.17169        -0.61596
H         21.99487        10.13862        -0.11605
H         21.97745        12.34895        -1.04619
H         21.69477        14.13373         0.22643
H         21.60147        16.50131         0.90164
H         21.72947        18.51902         0.78186
H         21.67594        20.93609         1.00878
H         21.52164        22.70176         1.83132
H         21.40773        25.06121         2.38725
H         21.33196        26.92185         2.77855
H         21.15389        29.29114         3.42035
H         18.93403        30.45391         3.37222
