         576
 CSIRO Nanostructure Databank - Neutral Graphene Oxide Data Set
C          5.98954        19.11018        -0.73552
C          5.98369        20.48266        -0.69830
C          4.77778        21.24574        -0.96265
C          5.96152        23.35701        -0.57506
C          4.76469        22.60287        -0.88483
C          5.95031        24.74041        -0.50896
C          8.49892        14.87618        -1.62819
C          8.43365        16.30043        -1.10102
C          7.26422        16.92188        -0.84608
C          8.46836        19.10434        -0.39764
C          7.18420        18.32017        -0.27485
C          8.43845        20.51577        -0.27224
C          7.20191        21.22567        -0.40446
C          8.40726        23.35764        -0.12267
C          7.19229        22.62900        -0.36253
C          8.37488        24.77478        -0.03676
C          7.14237        25.48622        -0.22932
C          8.31925        27.62079         0.11159
C          7.13754        26.88731        -0.17968
C          8.31196        29.05264         0.09425
C         10.85187        10.51308        -0.91103
C         10.87401        11.93175        -0.89560
C          9.70268        12.71129        -1.15035
C         10.94335        14.78778        -0.89580
C          9.73405        14.10611        -1.18545
C         11.01342        16.27230        -0.91741
C          9.71039        17.04685        -1.00676
C         10.92101        19.12577        -0.28843
C          9.69551        18.44209        -0.52369
C         10.89717        20.52805        -0.06465
C          9.66113        21.23857        -0.12181
C         10.86702        23.38411         0.20747
C          9.64496        22.65804        -0.00158
C         10.81209        24.78241         0.34581
C          9.57594        25.50098         0.24483
C         10.68854        27.68595         0.92963
C          9.52493        26.91233         0.36911
C         10.74230        29.11186         0.43660
C          9.50264        29.80770         0.15863
C         10.72343        31.93852        -0.23998
C          9.51318        31.21410        -0.04757
C         10.79375        33.29850        -0.51645
C         13.36961         6.15081        -0.45312
C         13.35101         7.59412        -0.70122
C         12.17504         8.27415        -0.93301
C         13.37933        10.50509        -0.91411
C         12.09465         9.74479        -1.06888
C         13.28742        11.83526        -0.18679
C         12.09332        12.64167        -0.62808
C         13.36359        14.78118        -0.30601
C         12.10619        14.03860        -0.59916
C         13.24790        16.17218         0.22407
C         12.13459        16.97042        -0.25980
C         13.35091        19.03418         0.30517
C         12.14302        18.36063        -0.08496
C         13.37753        20.50558         0.16109
C         12.11429        21.25620         0.13602
C         13.35444        23.33091         0.62294
C         12.12054        22.64760         0.29148
C         13.35520        24.80478         0.62605
C         12.06128        25.55400         0.47080
C         13.19184        27.70716         0.91104
C         12.01341        26.99155         0.78625
C         13.19687        29.13017         0.71201
C         11.95934        29.76868         0.34885
C         13.28148        31.88575        -0.18850
C         11.97226        31.13103        -0.22321
C         13.24614        33.32981        -0.29043
C         12.07370        33.96309        -0.98112
C         13.25985        36.18718        -0.63491
C         12.10620        35.47072        -0.87238
C         13.30133        37.63674        -0.72958
C         15.84956         6.14365        -0.68548
C         14.53088         5.47154        -0.35697
C         15.82674         7.60684        -0.30256
C         14.62958         8.27903        -0.57046
C         15.85918        10.44828        -0.19618
C         14.64977         9.73262        -0.72227
C         15.76924        11.89803         0.09835
C         14.60534        12.57058        -0.10895
C         15.72514        14.66775         0.80697
C         14.62881        14.05078        -0.05275
C         15.80837        16.16410         0.69229
C         14.53518        16.88070         0.67790
C         15.77516        18.99569         0.92199
C         14.54529        18.34752         0.60501
C         15.72162        20.44342         1.20135
C         14.63242        21.24228         0.58037
C         15.78272        23.38583         1.26437
C         14.54806        22.68050         0.88651
C         15.78589        24.78265         1.41143
C         14.49933        25.49698         1.29107
C         15.72262        27.74715         1.45100
C         14.43149        26.99309         1.33335
C         15.67475        29.23019         1.24428
C         14.41368        29.87676         0.77541
C         15.65435        31.99682         0.54469
C         14.45502        31.21349         0.38194
C         15.66448        33.36509         0.38561
C         14.56352        34.03694        -0.37923
C         15.65145        36.24657        -0.01323
C         14.49966        35.53153        -0.25448
C         15.71693        37.67025        -0.27987
C         14.46927        38.32849        -0.60424
C         18.24687         6.03422         0.14389
C         17.07656         5.39751        -0.26205
C         18.20593         7.44996         0.70036
C         16.98003         8.27532         0.24586
C         17.91504        10.48756         1.07860
C         16.91414         9.66416         0.44947
C         18.18004        11.81133         0.75142
C         17.01684        12.60480         0.38659
C         18.33820        14.69018         0.53841
C         17.03112        13.96141         0.56996
C         18.26187        16.13152         0.98722
C         17.01720        16.84396         0.88008
C         18.22356        18.97571         1.34486
C         16.99862        18.29129         1.07871
C         18.24889        20.42820         1.84640
C         16.95308        21.18976         1.63060
C         18.27186        23.33016         1.60699
C         16.98174        22.64196         1.43943
C         18.31718        24.80902         1.78124
C         16.98832        25.59123         1.90776
C         18.27060        27.80465         1.47870
C         17.01366        26.94405         1.15598
C         18.14464        29.09159         0.66686
C         16.94098        29.93448         0.92324
C         18.07964        31.98852         0.09644
C         16.91326        31.27112         0.66732
C         18.15163        33.45780         0.32637
C         16.88312        34.11006         0.86615
C         18.15392        36.36221         0.58802
C         16.84688        35.61499         0.59831
C         18.20087        37.69970        -0.05742
C         16.93879        38.33414        -0.33237
C         20.75773         6.07871         0.40925
C         19.47402         5.35482         0.12259
C         20.65430         7.46783        -0.29322
C         19.51884         8.18592         0.40896
C         20.78443        10.33147         0.72542
C         19.74257         9.38717         1.01418
C         20.72566        11.70685         0.98740
C         19.45861        12.48133         1.05006
C         20.73996        14.59894         1.49587
C         19.48205        13.86574         1.08938
C         20.71803        16.11145         1.24926
C         19.45862        16.82311         1.20011
C         20.70495        18.96124         1.37415
C         19.44626        18.26534         1.32778
C         20.71404        20.43262         1.42361
C         19.45345        21.19039         1.33947
C         20.67382        23.29750         0.82653
C         19.49613        22.57564         1.21347
C         20.74078        24.71950         0.85831
C         19.61580        25.51288         1.44123
C         20.71356        27.60891         0.46272
C         19.59531        27.02857         1.22648
C         20.61240        28.96156        -0.12652
C         19.31168        29.70664        -0.02545
C         20.58746        31.95201        -0.40626
C         19.29014        31.19593        -0.27967
C         20.58856        33.35082         0.15419
C         19.32191        34.13392         0.25325
C         20.70083        36.26683         0.34979
C         19.43675        35.56016         0.81618
C         20.69169        37.70353         0.02142
C         19.41345        38.32806        -0.26206
C         23.22007         6.07187        -0.14055
C         22.01116         5.36925        -0.01682
C         23.23858         7.51487        -0.10541
C         21.97131         8.25175        -0.23492
C         23.27051        10.35744         0.47966
C         21.99491         9.71513         0.15185
C         23.20402        11.78774         0.75468
C         21.97422        12.43526         0.89398
C         23.23916        14.62030         1.14259
C         21.93369        13.94256         0.77865
C         23.22068        16.10454         1.20026
C         21.90730        16.82208         1.20594
C         23.16700        18.99552         1.03483
C         21.91599        18.26941         1.23719
C         23.17008        20.34207         0.77218
C         21.97502        21.15482         1.01999
C         23.17069        23.23397         0.29411
C         21.85224        22.48774         0.30630
C         23.07669        24.67905        -0.13630
C         21.89755        25.42384         0.45468
C         23.13604        27.51917        -0.05768
C         21.90253        26.85599         0.28948
C         23.16899        28.96140        -0.37537
C         21.86672        29.69436        -0.53355
C         23.22433        31.96054        -0.54568
C         21.87911        31.21529        -0.61364
C         23.17141        33.34634         0.11629
C         21.87839        34.07950         0.30970
C         23.13288        36.27000        -0.08479
C         21.86772        35.56191         0.26680
C         23.17578        37.72983         0.31037
C         21.87755        38.39327        -0.09559
C         25.69655         6.09481        -0.19471
C         24.46793         5.40078        -0.28639
C         25.68670         7.49460         0.11134
C         24.45881         8.20875         0.10232
C         25.70015        10.32963         0.81158
C         24.44039         9.63670         0.36934
C         25.69597        11.78477         0.33942
C         24.44795        12.53837         0.72104
C         25.74458        14.65777         0.66877
C         24.49405        13.90840         0.80962
C         25.73332        16.12301         0.69778
C         24.39935        16.84205         0.59058
C         25.71895        18.96295         0.79253
C         24.46632        18.23139         1.20956
C         25.64961        20.43042         0.77749
C         24.38453        21.04090         0.21408
C         25.63109        23.24740         0.02726
C         24.35674        22.56157         0.28681
C         25.61931        24.68727        -0.22140
C         24.38977        25.41378        -0.03316
C         25.67246        27.53397         0.09920
C         24.37126        26.81668        -0.01391
C         25.72519        29.05969         0.20678
C         24.44378        29.73134        -0.25031
C         25.67230        31.94948        -0.26594
C         24.38269        31.20438         0.11949
C         25.68800        33.31482        -0.32192
C         24.46467        34.07856         0.04538
C         25.71761        36.25099        -0.24441
C         24.42314        35.53802        -0.22254
C         25.67047        37.71528        -0.19956
C         24.47854        38.39557        -0.07691
C         28.16870         6.10928        -0.44508
C         26.93282         5.41154        -0.40540
C         28.19652         7.49506        -0.09407
C         26.98623         8.13434         0.54985
C         28.15156        10.34280         0.35699
C         26.98951         9.64732         0.43048
C         28.21631        11.84486         0.12205
C         26.98429        12.50573         0.77896
C         28.21318        14.71939         0.21142
C         26.92821        13.98299         0.50815
C         28.21348        16.06208         0.96048
C         26.91245        16.82531         0.75692
C         28.18016        19.03375         0.63402
C         26.92409        18.29186         0.75244
C         28.18001        20.40456         0.52579
C         26.93160        21.19296         0.65363
C         28.07538        23.18910        -0.35751
C         26.83669        22.57516         0.13498
C         28.02824        24.61147        -0.85538
C         26.79791        25.35998        -0.58577
C         28.12271        27.57938        -0.75256
C         26.92013        26.80668        -0.33389
C         28.14133        28.95994        -0.74071
C         26.85615        29.69369        -0.61064
C         28.11541        31.92214        -1.19358
C         26.82600        31.17889        -0.80222
C         28.08793        33.39649        -0.81099
C         26.91490        34.07638        -0.55978
C         28.12908        36.31068        -0.83503
C         26.87885        35.54242        -0.44957
C         28.13625        37.73134        -0.32442
C         26.94595        38.40652        -0.18001
C         30.59914         6.18793        -0.85465
C         29.39155         5.47547        -0.80701
C         30.59499         7.57803        -0.57647
C         29.39401         8.21055        -0.19523
C         30.69984        10.31636         0.58474
C         29.42359         9.59294         0.34961
C         30.73288        11.80616         0.98157
C         29.47833        12.55221         0.56319
C         30.70164        14.67776         0.60185
C         29.47695        13.92759         0.52320
C         30.65417        16.11352         0.57716
C         29.46990        16.82734         0.63324
C         30.68941        18.98327         0.21395
C         29.50244        18.31489         0.88958
C         30.68446        20.41766         0.05544
C         29.45365        21.16474         0.41911
C         30.64182        23.35514        -0.34551
C         29.39737        22.63579         0.06714
C         30.60690        24.60705        -0.90272
C         29.32279        25.33766        -1.09725
C         30.65936        27.64048        -1.26495
C         29.34461        26.84362        -1.15977
C         30.59863        29.02700        -0.66730
C         29.36400        29.73390        -0.77597
C         30.55400        31.83111        -0.43866
C         29.35946        31.16233        -0.71226
C         30.65094        33.30373        -0.59721
C         29.37186        34.11758        -0.86861
C         30.57658        36.18376        -0.22248
C         29.39624        35.54780        -0.54251
C         30.58291        37.62932        -0.00883
C         29.40232        38.35354        -0.07360
C         33.05647         6.22078        -1.11568
C         31.87534         5.54642        -1.14098
C         33.13890         7.65245        -0.86744
C         31.84451         8.36398        -0.67696
C         33.24787        10.32401         0.28446
C         31.90096         9.74548        -0.10303
C         33.20007        11.83920         0.32939
C         31.99341        12.52598         0.54291
C         33.17354        14.66598         0.48512
C         31.95999        13.97071         0.54666
C         33.22964        16.13684         0.50030
C         31.92675        16.87863         0.54334
C         33.01875        18.85778        -0.63835
C         31.84900        18.26543         0.02538
C         33.01296        20.39224        -0.78162
C         31.81943        21.10778        -0.31647
C         33.23618        23.17322         0.24938
C         31.87795        22.56951        -0.01180
C         33.32887        24.62691         0.50650
C         31.82960        25.38465        -1.36679
C         33.02669        27.43541        -0.44342
C         31.88707        26.82216        -0.90287
C         32.93555        28.84445         0.19350
C         31.76737        29.67717        -0.29618
C         32.94615        31.82070         0.16003
C         31.76758        31.11061        -0.14284
C         32.89511        33.24652         0.63391
C         31.77861        34.03247        -0.01642
C         33.00164        36.11297         0.44271
C         31.78201        35.41462         0.04982
C         32.97520        37.54853         0.53484
C         31.82822        38.26544         0.33194
C         34.32142         8.33043        -0.80006
C         35.67842        10.45635        -0.25595
C         34.36375         9.83926        -0.66933
C         35.69345        11.80846         0.06259
C         34.44227        12.50605         0.28391
C         35.74208        14.71964         0.39042
C         34.44043        13.94381         0.53056
C         35.66309        16.13695        -0.04441
C         34.44462        16.79006        -0.05060
C         35.65368        18.86427        -0.95202
C         34.33158        18.11118        -0.68542
C         35.64708        20.35958        -1.04929
C         34.31897        21.12877        -0.88540
C         35.61704        23.16040        -0.45302
C         34.42702        22.47938        -0.31141
C         35.72913        24.60431        -0.01322
C         34.41934        25.38866         0.03527
C         35.53832        27.40820        -0.89521
C         34.31674        26.73699        -0.34366
C         35.45487        29.09335         0.84944
C         34.24646        29.62310         0.13260
C         35.49774        31.85707         0.47866
C         34.24081        31.14411         0.11030
C         35.42196        33.28473         0.59822
C         34.22361        33.97380         0.56548
C         34.18232        35.40163         0.62213
C         36.92874        12.56286         0.04782
C         38.17018        14.70774        -0.07300
C         36.97148        13.94877         0.07780
C         38.15740        16.10638        -0.15683
C         36.90422        16.82708        -0.30499
C         38.13352        18.96201        -0.49037
C         36.91029        18.20617        -0.54820
C         38.13482        20.35891        -0.65168
C         36.90510        21.07945        -0.76973
C         38.10167        23.25975        -0.77202
C         36.86750        22.47958        -0.69741
C         37.98751        24.58396        -1.05437
C         36.71593        25.33924        -0.93762
C         38.04058        27.54525         0.12946
C         36.84296        26.77456        -0.39746
C         37.92450        29.03164         0.20186
C         36.77219        29.72334         0.48298
C         36.70080        31.17416         0.51255
C         39.36611        16.86466        -0.12088
C         40.57326        19.01011         0.00845
C         39.36925        18.25168        -0.22161
C         40.60860        20.37877        -0.12418
C         39.42696        21.09481        -0.65405
C         40.62198        23.34611        -0.14391
C         39.44657        22.61157        -0.73269
C         40.70642        24.70090         0.13993
C         39.74358        25.70959        -0.26786
C         39.37372        26.87524         0.34031
C         41.76651        21.16079         0.21986
C         41.75390        22.52688         0.23996
O         30.28143        33.74260        -1.94791
O         24.03305        29.29919        -1.55637
O         21.93708         9.30176        -1.27658
O         39.73096        21.80784        -1.91643
O         12.75402        31.20098        -1.45986
O         32.67438        24.84866        -2.06255
O         35.30562        28.36696         1.83343
O         35.51916        28.21415        -1.81296
O         37.05804        26.88101         1.03064
O         18.46709        23.95102         2.96352
O         39.07003        25.36278        -1.46460
O         17.28965        36.38220         1.76881
O         18.79505         9.84258         1.95755
O         21.60188        21.08443         2.42170
O         26.41469        30.25469        -1.88472
O         34.46598        30.32042        -1.10221
O         34.95188        18.15766        -2.00751
O         21.22661        33.43865         1.48819
O         23.95524        33.61878         1.33111
O         10.56902        16.86817        -2.18551
O         27.95986        23.48137        -1.79435
O         21.13292        31.77026        -1.74661
O         15.71206        10.17871        -1.63864
O         14.39252        20.94333        -0.82770
O         32.43071        22.62199         1.37371
O         23.61221        35.90966        -1.41532
O         14.39290        14.67623        -1.35916
O         18.30169        28.94378        -0.78857
O         21.06550        29.03355        -1.54011
O         30.12753         9.52309         1.68125
O         34.94944        20.94800        -2.18253
O         31.67703         9.57969        -1.54003
O         18.33675        31.59792        -1.30338
O         26.22532        21.05346         1.95837
O         32.73905        16.75632         1.76261
O         15.91096        20.77977         2.62142
O         26.56779        26.99828         1.13242
O         29.51726        22.20789         1.45961
O         13.54291        16.31708         1.65785
O         20.06259        26.41976         2.48347
O         35.24146        14.42425         1.71916
O         23.39815        15.32851         2.43172
O         29.19943        26.03916        -2.38786
O         12.99642        25.34029        -0.68613
O         14.13059        26.19466         2.54129
O         12.86294        10.36620        -2.24426
O         15.68575        28.63743         2.59747
O         32.71674        19.51266        -1.90038
O         24.60734        18.02792         2.64100
H         24.70701        18.90501         3.06876
O         34.13254        10.39450        -1.99514
H         33.22609        10.10945        -2.27482
O         28.29035        15.79186         2.39109
H         27.61529        15.11179         2.61117
O         15.92797         6.11732        -2.16022
H         15.25752         6.74759        -2.50231
O         10.43177        27.75901         2.38930
H         11.23858        28.12350         2.81340
O         23.63060        32.19237        -1.90771
H         22.83347        32.16618        -2.48415
O         32.56084        33.18348         2.07268
H         32.59098        34.10126         2.41857
O         12.23189        33.68436        -2.44254
H         12.27452        32.69541        -2.51237
O         28.19242        12.05203        -1.32260
H         27.35098        11.65122        -1.65835
O         16.95189        33.90296         2.29923
H         17.50338        34.64472         2.65633
O         22.76688        24.58217        -1.59770
H         23.61945        24.49631        -2.07758
O         30.84330        27.93803        -2.67785
H         30.48304        27.17660        -3.19067
O         36.23236        24.48565         1.33233
H         36.43980        25.38532         1.68326
O         20.88626        14.40724         2.91965
H         21.74391        14.82250         3.18525
O         23.19152        37.71084         1.78090
H         23.01843        38.62183         2.09817
O         27.16746        12.42419         2.21311
H         26.62505        11.67270         2.56640
O         17.02734        26.59062        -0.23640
H         17.30523        27.36459        -0.78195
O         18.25453        28.20702         2.84734
H         17.86389        27.47345         3.38404
O         28.21859        14.98722        -1.21671
H         28.31001        14.10917        -1.65875
O         25.66641        10.26940         2.27456
H         25.98218         9.36168         2.52252
O         18.11899         7.26153         2.14500
H         18.17260         8.16095         2.55161
O         25.64117        11.70186        -1.11905
H         25.37466        12.58016        -1.46457
O         28.19885        31.93196        -2.63840
H         27.66240        31.16979        -2.96297
O         18.43526        20.30634         3.28458
H         17.53718        20.27838         3.68685
O         16.81783        25.89758         3.30410
H         17.12566        25.10629         3.80655
O          6.99942        18.13540         1.18510
H          6.05876        17.90282         1.33562
O         32.36063        25.14633         1.26454
H         31.87202        24.38134         1.66974
O         25.97978        29.38700         1.59219
H         26.43007        28.59828         1.98694
O         14.93508        33.82514        -1.80897
H         14.10435        33.94251        -2.34175
O         27.08958         7.87734         2.01094
H         28.02729         8.02850         2.26446
O         18.67135        14.81739        -0.90135
H         18.79417        13.91483        -1.26651
O         24.11852        31.21203         1.53229
H         24.85962        30.75181         1.99232
O         24.40349        20.73489        -1.21706
H         23.54068        21.03833        -1.58365
O         19.55267        35.39717         2.25238
H         20.29438        34.76141         2.41117
O         28.08167        36.42564        -2.29767
H         28.20114        35.52710        -2.67515
O         21.72811        14.21489        -0.63868
H         22.43363        13.76645        -1.14976
O         24.07715        16.95839        -0.81693
H         24.74592        17.53763        -1.24011
O          7.30976        14.15825        -1.30154
H          7.24924        14.08639        -0.32725
O         15.36584        14.36907         2.19812
H         14.67132        15.02499         2.45617
O         20.35228         7.21539        -1.67370
H         20.60240         8.02412        -2.17462
O         29.72239        18.43974         2.32901
H         29.22198        17.71510         2.76965
O         36.08665        25.40606        -2.23393
H         36.71407        25.79606        -2.87793
O         33.56402         9.84300         1.61020
H         32.96143        10.28211         2.24856
O         21.59495        22.14367        -1.09688
H         21.72068        22.98372        -1.60906
O         20.85544         6.32174         1.84831
H         19.94184         6.50388         2.18397
O         13.01492        11.42864         1.20590
H         13.06872        12.22603         1.77512
O         30.79574        11.84608         2.43883
H         30.18641        11.14546         2.76874
O         32.64389        28.57364         1.59120
H         33.48466        28.25874         2.01278
H          5.05803        18.56645        -0.96052
H          3.85746        20.69466        -1.20667
H          3.83365        23.15938        -1.06851
H          5.01089        25.28760        -0.67952
H          8.53667        14.93807        -2.75091
H          6.32377        16.35496        -0.94475
H          6.19994        27.43239        -0.36513
H          7.35979        29.57035        -0.09655
H          9.88718         9.99021        -0.99667
H          8.75637        12.19841        -1.37840
H          8.55356        31.73593        -0.18446
H          9.86576        33.89139        -0.50995
H         12.40563         5.63622        -0.32040
H         11.22999         7.70863        -0.94015
H         11.18813        36.01698        -1.14060
H         12.36982        38.16888        -0.97349
H         14.52510         4.38599        -0.17697
H         14.47921        39.41921        -0.74892
H         17.13672         4.34222        -0.57461
H         16.95303        39.38946        -0.64686
H         19.50105         4.31524        -0.24160
H         19.42411        39.35347        -0.66289
H         22.01750         4.26977        -0.07347
H         21.86765        39.46042        -0.36729
H         24.47587         4.30963        -0.42677
H         24.50885        39.49722        -0.03638
H         26.91307         4.33744        -0.63991
H         26.95457        39.47636         0.08222
H         29.38790         4.39964        -1.03687
H         29.42044        39.42998         0.15896
H         33.99664         5.68236        -1.30716
H         31.87013         4.46662        -1.35096
H         33.90890        38.06845         0.79541
H         31.83993        39.36016         0.44029
H         35.26561         7.78443        -0.95530
H         36.62220         9.92797        -0.46122
H         36.36269        33.84898         0.69745
H         35.12568        35.95127         0.76427
H         37.86231        12.00903        -0.13660
H         39.13403        14.17741        -0.10415
H         38.83077        29.60922        -0.04237
H         37.63996        31.74252         0.60022
H         40.31561        16.33537         0.04955
H         41.47208        18.47246         0.34704
H         41.57667        25.03879         0.72651
H         39.91197        27.18838         1.24868
H         42.67564        20.62536         0.53136
H         42.65904        23.05681         0.57358
