         618
 CSIRO Nanostructure Databank - Neutral Graphene Oxide Data Set
C         22.97310        69.86548         0.58518
C         22.94184        71.27079         0.46121
C         21.70549        71.98003         0.51192
C         22.88803        74.08393         0.31176
C         21.68448        73.35818         0.42223
C         25.59752        65.58659         0.95634
C         25.58293        67.09766         1.05770
C         24.26734        67.76352         0.77080
C         25.39669        69.90484         0.24670
C         24.19957        69.15075         0.55304
C         25.40309        71.29893         0.15177
C         24.16222        72.01365         0.31053
C         25.37959        74.26081         0.22444
C         24.11856        73.42868         0.26517
C         28.04768        61.31656         0.78028
C         28.01042        62.69856         0.67020
C         26.66435        63.37425         0.47471
C         27.92321        65.53792         0.02285
C         26.68864        64.88442         0.59342
C         27.90038        67.05157         0.10647
C         26.70126        67.72879         0.26897
C         27.89151        69.91207        -0.41017
C         26.58916        69.12887        -0.11014
C         27.87296        71.37046        -0.22027
C         26.64191        72.04484        -0.04741
C         27.85685        74.16788        -0.01794
C         26.65714        73.47162         0.03842
C         30.55650        57.05030         1.26882
C         30.51929        58.48678         1.12301
C         29.30712        59.18232         0.98265
C         30.49583        61.34277         0.94467
C         29.27572        60.59703         0.89736
C         30.44941        62.76032         0.88821
C         29.23145        63.44592         0.69516
C         30.37631        65.61748         0.49222
C         29.21689        64.89208         0.50387
C         30.35466        67.12105         0.54039
C         29.11626        67.78580        -0.00767
C         30.33915        69.94767        -0.13163
C         29.14308        69.18617        -0.17069
C         30.34941        71.35239        -0.22879
C         29.10741        72.07034        -0.19939
C         30.34567        74.19538        -0.09989
C         29.11549        73.50026        -0.11023
C         33.08798        52.78089         1.62978
C         33.03768        54.19599         1.55176
C         31.82103        54.90993         1.47244
C         33.01164        57.07789         1.13646
C         31.74482        56.32062         1.30366
C         32.98511        58.53432         1.46602
C         31.73416        59.25373         1.18837
C         33.01515        61.37807         1.03946
C         31.74472        60.64932         1.08910
C         32.99767        62.80332         0.83932
C         31.71803        63.50340         1.00687
C         32.92398        65.61136         0.23479
C         31.69111        64.99648         0.77517
C         32.85800        67.01561        -0.22529
C         31.58741        67.77379        -0.04109
C         32.80734        69.90075        -0.59928
C         31.64823        69.27400         0.17314
C         32.82981        71.40080        -0.39443
C         31.60511        72.07598        -0.25920
C         32.82283        74.21302        -0.21405
C         31.59185        73.52015        -0.18810
C         35.64039        48.54218         1.80231
C         35.59087        49.94448         1.69069
C         34.35148        50.66421         1.68109
C         35.59755        52.82832         1.90386
C         34.30573        52.06037         1.67979
C         35.50156        54.24130         1.39447
C         34.30995        54.89837         1.38842
C         35.57787        57.10476         1.56747
C         34.30977        56.36388         1.14142
C         35.54800        58.57217         1.21890
C         34.30270        59.30309         1.46172
C         35.53830        61.49808         1.13450
C         34.23869        60.73007         1.13814
C         35.43268        62.85333         0.48653
C         34.17627        63.51727         0.52315
C         35.27760        65.54408        -0.58753
C         34.09775        64.91817         0.13546
C         35.30607        67.05646        -0.50405
C         34.13794        67.75186        -0.35529
C         35.25770        69.94270        -0.92581
C         34.13884        69.25698        -0.17811
C         35.28507        71.41418        -0.78752
C         34.06258        72.09585        -0.50349
C         35.29509        74.20838        -0.41954
C         34.05882        73.53519        -0.37449
C         37.94842        44.25796         1.18987
C         38.05933        45.63715         1.49183
C         36.91235        46.35341         2.17273
C         38.07272        48.47946         1.61509
C         36.86740        47.81972         1.78747
C         38.09217        49.94189         1.63657
C         36.82684        50.67814         1.58634
C         38.06297        52.76215         1.20896
C         36.85262        52.07501         1.49419
C         38.01463        54.23162         1.06891
C         36.69543        54.90910         0.77023
C         37.88985        57.09801         0.58508
C         36.77328        56.40018         0.99472
C         37.88818        58.52177         0.50980
C         36.69677        59.26096         0.78324
C         37.88548        61.38255         0.24178
C         36.71811        60.69555         0.64564
C         37.87039        62.81512         0.06074
C         36.62639        63.52726         0.10412
C         37.80393        65.62496        -0.42104
C         36.60724        64.91115        -0.24153
C         37.77715        67.06221        -0.67175
C         36.56641        67.74431        -0.70871
C         37.79430        69.94619        -1.11542
C         36.54042        69.17908        -1.06363
C         37.73449        71.37486        -1.17000
C         36.51048        72.09603        -0.95024
C         37.72558        74.23816        -0.58441
C         36.52054        73.53563        -0.68745
C         40.22508        39.92804         0.24126
C         40.17187        41.34618         0.26418
C         39.03208        42.08264         0.67277
C         40.29022        44.18058         0.43954
C         39.07154        43.49254         0.75220
C         40.30919        45.68997         0.43650
C         39.24552        46.32832         1.28257
C         40.55918        48.50414         1.11077
C         39.39640        47.75720         1.77144
C         40.54860        49.85814         0.87990
C         39.39135        50.67575         1.32393
C         40.46534        52.77029         0.49769
C         39.30182        52.10662         0.98178
C         40.44144        54.18881         0.20850
C         39.20706        54.93923         0.52196
C         40.21679        57.02664        -0.56351
C         39.02828        56.32973         0.00006
C         40.36179        58.47553        -0.22479
C         39.14400        59.23564         0.25367
C         40.29992        61.35732        -0.34490
C         39.11444        60.68504         0.02492
C         40.29527        62.78592        -0.41398
C         39.07128        63.50701        -0.23852
C         40.27977        65.65417        -0.55229
C         39.05886        64.93551        -0.39177
C         40.24798        67.08599        -0.74059
C         39.01861        67.78862        -0.84616
C         40.28048        69.90591        -1.26723
C         38.99715        69.20743        -1.07755
C         40.29370        71.43835        -1.36982
C         38.96830        72.14516        -1.38978
C         40.26356        74.28355        -0.68419
C         38.98392        73.66436        -1.03097
C         42.66086        35.67209         0.27504
C         42.67490        37.08890         0.13612
C         41.47703        37.81846         0.16202
C         42.61019        39.94548        -0.42745
C         41.43460        39.23845         0.00483
C         42.48282        41.33636        -0.60921
C         41.35007        42.05707        -0.12632
C         42.69572        44.16965        -0.21759
C         41.41956        43.47918         0.00554
C         42.81974        45.50774         0.08666
C         41.69353        46.24398         0.68751
C         42.98267        48.42283         0.28206
C         41.80618        47.73928         0.88179
C         42.86821        49.85082         0.03941
C         41.70300        50.54967         0.31377
C         42.73465        52.67872        -0.41871
C         41.64784        52.01268         0.13261
C         42.80518        54.14190        -0.40570
C         41.54795        54.87943        -0.24806
C         42.74239        57.04723        -0.92499
C         41.46365        56.22863        -0.95339
C         42.72604        58.47971        -0.97856
C         41.52979        59.22160        -0.72466
C         42.73537        61.35295        -0.88124
C         41.51621        60.62698        -0.65760
C         42.72510        62.77510        -0.76873
C         41.52187        63.49575        -0.60185
C         42.75701        65.65399        -0.67020
C         41.52218        64.94498        -0.57886
C         42.77075        67.13179        -0.36307
C         41.48443        67.82484        -0.73341
C         42.73849        69.95839        -0.62926
C         41.50076        69.18986        -0.87965
C         42.73080        71.45050        -0.67847
C         41.49159        72.17812        -0.98114
C         42.74112        74.25142        -0.52333
C         41.47561        73.58134        -0.73837
C         45.11924        32.84268         0.62166
C         43.88939        33.54034         0.58624
C         45.09301        35.71061         0.62646
C         43.84572        34.94001         0.46288
C         45.13123        37.10101         0.13940
C         43.93581        37.78092        -0.03461
C         45.19706        39.60257        -1.14414
C         43.98515        39.29757        -0.20403
C         45.36335        41.04515        -1.50339
C         43.51748        42.13633        -1.22173
C         45.05397        44.09306        -1.22375
C         43.77168        43.43977        -0.86643
C         45.25006        45.47512        -0.69416
C         44.11461        46.20712        -0.03210
C         45.10370        48.29219        -1.01813
C         44.08528        47.68757        -0.11909
C         45.01938        49.75109        -1.25670
C         44.11431        50.60025        -0.39468
C         45.06585        52.64456        -1.56268
C         43.79400        51.89797        -1.14976
C         45.15308        54.13950        -1.54986
C         44.03484        54.87310        -0.84219
C         45.17717        57.06727        -1.13819
C         43.95207        56.35945        -1.01791
C         45.16856        58.45432        -1.29165
C         43.94944        59.20052        -1.18092
C         45.16659        61.38420        -1.36557
C         43.94584        60.63318        -1.14342
C         45.17348        62.75886        -1.27374
C         44.03574        63.49789        -0.62452
C         45.16602        65.72935        -1.11851
C         43.97025        64.99024        -0.87590
C         45.20375        67.14990        -1.08594
C         44.00421        67.87342        -0.84565
C         45.24078        70.02422        -0.97520
C         44.02767        69.26337        -0.81320
C         45.21219        71.47943        -0.95067
C         44.02002        72.15949        -0.81401
C         45.20845        74.29547        -0.46151
C         43.96628        73.60528        -0.65541
C         46.34155        33.47986         0.60352
C         47.66187        35.66899         0.46218
C         46.43609        34.92910         0.73514
C         47.65680        37.06185         0.27787
C         46.41493        37.76186         0.00401
C         47.65377        39.83251        -0.46330
C         46.45539        39.06482        -0.49493
C         47.66133        41.22830        -0.76375
C         46.43552        41.85426        -1.24519
C         47.65979        44.08772        -1.30175
C         46.38617        43.32454        -1.45371
C         47.64553        45.48346        -1.42620
C         46.42518        46.21324        -1.21817
C         47.56379        48.34715        -1.68205
C         46.37727        47.58292        -1.32316
C         47.31834        49.71454        -2.12568
C         46.17783        50.43636        -1.87223
C         48.02293        52.99294        -2.12640
C         46.04068        51.85904        -2.13278
C         47.80100        54.24548        -1.59057
C         46.46955        54.91602        -1.60647
C         47.71992        57.07347        -1.11231
C         46.44829        56.27822        -0.89691
C         47.70880        58.43946        -1.24434
C         46.44655        59.15682        -1.53535
C         47.70357        61.33315        -1.20154
C         46.44548        60.65385        -1.62162
C         47.71784        62.80525        -1.32993
C         46.39824        63.52156        -1.55742
C         47.71820        65.76653        -1.25222
C         46.38375        65.01689        -1.49197
C         47.64438        67.17787        -0.90543
C         46.45088        67.88997        -1.10127
C         47.75190        70.05361        -1.21318
C         46.45195        69.33276        -1.08407
C         47.84438        71.59181        -1.29703
C         46.43696        72.29393        -1.36246
C         47.66151        74.34896        -0.46223
C         46.44139        73.68156        -0.65113
C         48.86747        37.79706         0.21538
C         50.06983        39.94017        -0.00203
C         48.87806        39.18123        -0.06464
C         50.07754        41.31715        -0.29515
C         48.85695        41.97502        -0.68968
C         50.09007        44.09808        -0.88276
C         48.88379        43.38543        -1.00979
C         50.18910        45.51088        -1.27863
C         48.88601        46.26644        -1.59869
C         50.20186        48.46228        -1.69782
C         48.82477        47.75793        -1.63306
C         50.26855        49.99763        -1.54759
C         49.29575        50.83388        -2.10561
C         50.24703        52.82660        -1.08789
C         49.20633        52.22132        -1.83903
C         50.18508        54.23824        -0.83239
C         48.95812        54.95522        -1.08741
C         50.28266        57.05515        -1.08996
C         48.94994        56.34751        -0.99849
C         50.19885        58.51791        -0.77117
C         49.00508        59.21410        -1.38722
C         49.99042        61.32144        -0.29905
C         48.84360        60.64071        -0.92785
C         49.99151        62.84304        -0.26276
C         48.87578        63.57951        -0.87705
C         50.09463        65.63884        -0.43798
C         48.89847        64.96249        -0.86333
C         50.09062        67.09038        -0.17270
C         48.82665        67.86987        -0.36776
C         50.19317        70.01063        -0.26407
C         48.96812        69.31033        -0.72477
C         50.15646        71.45798        -0.11146
C         48.77054        72.12755        -0.08886
C         50.04726        74.31316         0.05484
C         48.87848        73.64695        -0.21903
C         51.27991        42.06871        -0.20484
C         52.52673        44.18070        -0.40287
C         51.30057        43.44304        -0.46457
C         52.60312        45.57658        -0.42485
C         51.29621        46.30753        -0.62272
C         52.27732        48.59739        -0.15722
C         51.13834        47.81108        -0.64954
C         52.53662        49.91786        -0.44855
C         51.39458        50.65720        -0.97074
C         52.46142        52.64706         0.05125
C         51.36838        52.04390        -0.73188
C         52.42683        54.14434         0.24911
C         51.30373        54.91453        -0.31191
C         52.45071        57.02697         0.18890
C         51.36281        56.33030        -0.33611
C         52.47737        58.45824         0.20466
C         51.27406        59.17955        -0.22709
C         52.40378        61.34058         0.24272
C         51.27175        60.62932        -0.11290
C         52.45150        62.77577         0.16274
C         51.28899        63.51377        -0.16596
C         52.60211        65.62399        -0.35684
C         51.27845        64.92794        -0.27613
C         52.54806        67.12069        -0.16758
C         51.37965        67.82119        -0.16713
C         52.62009        69.96684         0.13503
C         51.35222        69.27912        -0.06547
C         52.58744        71.41909         0.55047
C         51.30118        72.13995         0.19653
C         52.56310        74.33535        -0.10661
C         51.31766        73.62603         0.48592
C         53.89906        46.17773        -0.42889
C         55.15540        48.42394        -0.25717
C         54.13229        47.51378        -0.01596
C         55.04087        49.84703         0.01216
C         53.78332        50.55913        -0.06642
C         54.94148        52.70952         0.38033
C         53.77326        51.96778         0.10751
C         54.90493        54.14848         0.59084
C         53.69415        54.83365         0.50503
C         54.89513        57.03478         0.96832
C         53.59864        56.27743         0.73599
C         54.88403        58.49079         0.77076
C         53.63964        59.15886         0.56779
C         54.89621        61.35588         0.79048
C         53.57070        60.63200         0.88265
C         54.87091        62.80546         0.80190
C         53.67877        63.46190         0.45269
C         54.85440        65.69208         0.91463
C         53.62706        64.93471         0.51827
C         54.88269        67.18559         0.78347
C         53.88298        67.81176        -0.19358
C         55.13313        69.98238        -0.02127
C         53.79898        69.29731         0.02339
C         55.05999        71.47384         0.14515
C         53.85350        72.17116         0.17676
C         55.09626        74.25694         0.02742
C         53.87271        73.59200         0.08574
C         56.21175        50.61061         0.19127
C         57.39739        52.76197         0.55379
C         56.20293        52.01852         0.38648
C         57.40139        54.17446         0.70454
C         56.14574        54.88702         0.75212
C         57.37057        57.04166         0.88324
C         56.15774        56.29037         0.86619
C         57.35455        58.46969         0.93979
C         56.09927        59.19082         0.86724
C         57.34156        61.33464         1.18839
C         56.07543        60.63563         0.89470
C         57.33547        62.83301         1.27535
C         56.07848        63.56784         1.04424
C         57.35883        65.71104         1.15228
C         56.11898        64.96189         1.07008
C         57.40350        67.12035         1.14503
C         56.14272        67.91678         1.12505
C         57.51985        70.00381         0.55598
C         56.18641        69.44013         0.97558
C         57.52694        71.34990         0.19640
C         56.31355        72.12708         0.12305
C         57.60266        74.21269         0.11695
C         56.34333        73.55797         0.07767
C         58.60527        54.90971         0.78463
C         59.83397        57.05804         0.90471
C         58.62326        56.32730         0.86026
C         59.84248        58.47082         0.95828
C         58.59295        59.18294         0.97787
C         59.81582        61.32203         0.96406
C         58.62091        60.61215         0.99822
C         59.82926        62.81013         0.68238
C         58.59360        63.56767         1.09200
C         59.85949        65.66297         1.10358
C         58.59884        64.95391         1.10121
C         59.88147        67.06464         1.02836
C         58.65315        67.81743         0.96817
C         59.98084        69.88699         0.50138
C         58.70568        69.21482         0.67699
C         60.02742        71.26687         0.23147
C         58.80039        72.01325        -0.22951
C         60.05758        74.13413         0.15764
C         58.82120        73.49915         0.06677
C         61.05660        59.21398         1.00300
C         62.29113        61.36631         1.07129
C         61.06543        60.61668         0.99705
C         62.32012        62.75685         1.17352
C         61.08773        63.52218         1.10458
C         62.32275        65.62983         1.65688
C         61.07885        64.89510         1.23015
C         62.36123        67.05327         1.14575
C         61.15878        67.75508         0.94756
C         62.46201        69.81079         0.53519
C         61.20321        69.15279         0.67502
C         62.47642        71.23843         0.36452
C         61.26915        71.95770         0.23930
C         62.51757        74.07478         0.20055
C         61.29337        73.40704         0.16949
C         63.55758        63.47554         1.27760
C         64.81265        65.58626         1.44494
C         63.59599        64.85768         1.39218
C         64.83855        66.98183         1.31492
C         63.60562        67.71327         1.00966
C         65.01697        69.68340         0.28795
C         63.67112        69.06890         0.64470
C         64.94078        71.20543         0.27500
C         63.72872        71.93325         0.31878
C         64.99151        74.06133         0.24790
C         63.75581        73.36852         0.23745
C         66.01925        67.72991         1.51594
C         67.33811        69.74197         1.53955
C         66.15002        69.08456         1.15526
C         67.78095        70.97096         0.98512
C         66.09962        71.94106         0.04945
C         67.50182        73.94935         0.41866
C         66.20259        73.35083         0.20256
C         68.59098        71.96756         1.51867
C         68.56446        73.31202         1.03114
O         48.32123        50.26705        -2.93383
O         55.08867        67.67554         2.13670
O         40.45174        70.58570        -2.56762
O         43.92229        54.54790         0.58328
O         40.19032        58.75197         1.20922
O         50.62595        47.02418         0.47830
O         45.72819        35.50067         1.90856
O         52.02756        53.21551         1.33218
O         54.02612        56.64833         2.09172
O         49.80411        45.75958        -2.65120
O         42.03497        46.78708         1.98767
O         44.39029        48.85067        -2.21716
O         45.56918        43.84957        -2.55295
O         57.31132        62.00045         2.51470
O         47.14746        65.57100        -2.59229
O         45.19069        45.57317         0.77383
O         45.61482        54.80285        -2.77279
O         35.60992        69.42285        -2.23148
O         49.22127        67.46522         0.97521
O         46.51242        59.86321        -2.85978
O         42.62891        70.71439         0.64821
O         48.12521        71.82054         1.08387
O         49.59258        62.05852         0.91592
O         31.78016        64.46492         2.14081
O         46.18676        72.66613        -2.67884
O         33.73573        56.79156        -0.13406
O         39.10627        56.62737        -1.44300
O         67.25685        71.23793        -0.30792
O         48.67793        69.43668        -2.16223
O         33.61144        58.91023         2.72039
O         53.78295        65.37659         1.89243
O         38.90040        73.15340        -2.42365
O         39.01689        50.41743         2.72334
O         38.90184        54.94912         1.97309
O         31.91822        67.26783        -1.35241
O         47.19707        63.08447        -2.68958
O         44.27553        41.53221        -2.24528
O         47.04138        52.42257        -2.93825
O         53.06093        47.98769         0.79961
O         27.05665        69.40837        -1.47881
O         40.02429        46.09352        -0.95941
H         39.18716        45.65784        -1.22765
O         31.87748        69.52511         1.59200
H         31.25529        68.94197         2.09731
O         59.81183        62.87213        -0.80484
H         59.98897        63.80302        -1.06087
O         30.35185        67.42532         1.98531
H         29.58537        66.96748         2.39324
O         44.99734        38.87821        -2.38462
H         44.49973        39.47154        -2.98911
O         35.82398        61.77264         2.57021
H         35.01525        62.16869         2.96082
O         32.59350        69.67183        -2.00255
H         33.45627        69.69290        -2.47043
O         41.32890        55.85431        -2.35781
H         40.35943        55.82157        -2.54809
O         26.20592        63.07555        -0.86653
H         26.37504        62.12651        -1.04367
O         52.38392        74.48005        -1.52151
H         51.44336        74.70153        -1.69195
O         55.93158        70.02545         2.26677
H         55.26194        69.45748         2.71631
O         51.40682        73.80227         1.93967
H         50.55311        73.49525         2.31713
O         35.06891        65.20687        -2.00123
H         35.68468        65.75346        -2.53410
O         42.85699        67.18915         1.10722
H         42.88552        68.13701         1.36497
O         53.06204        65.35520        -1.72476
H         52.35958        65.64129        -2.34582
O         35.71549        52.96420         3.36239
H         35.81601        52.06314         3.73672
O         25.91105        67.40609         2.47929
H         25.09888        67.24651         3.00612
O         27.89193        65.26216        -1.41391
H         27.29481        64.49019        -1.56344
O         36.51502        54.72762        -0.67807
H         35.69061        55.19318        -0.94066
O         55.70533        69.75974        -1.34562
H         55.09239        70.14102        -2.00814
O         53.24771        60.68094         2.32265
H         53.99745        60.27934         2.81221
O         34.44874        69.53475         1.20964
H         33.60547        69.48878         1.72896
O         62.23296        65.73904         3.12184
H         63.05531        66.17464         3.43173
O         54.49336        67.52972        -1.48840
H         53.86615        67.79979        -2.19027
O         39.64346        47.70867         3.21648
H         39.66817        48.64869         3.51828
O         48.52863        71.95000        -2.47859
H         47.81766        72.35026        -3.06442
O         37.12339        46.30108         3.59578
H         38.01147        46.70166         3.76678
O         44.88198        50.92230         0.78665
H         44.36065        51.54279         1.33964
O         49.26501        59.30260        -2.83737
H         48.40435        59.57262        -3.25067
O         50.68008        56.97628        -2.50891
H         50.18661        57.69634        -2.97870
O         46.44359        55.92887         0.51927
H         46.33293        56.74636         1.04772
O         58.82131        71.92951        -1.70597
H         58.63534        70.99711        -1.94856
O         50.82437        48.15312        -2.96819
H         50.19353        48.38349        -3.68242
O         44.38845        39.83643         1.09093
H         43.73739        39.54454         1.76334
O         35.62826        56.95606         3.01989
H         36.41355        57.44054         3.35083
O         52.62526        71.37746         2.01574
H         52.38463        72.28492         2.33118
O         43.15723        51.48810        -2.39545
H         43.06770        52.27409        -2.97409
O         25.27607        75.27486        -0.78949
H         25.22283        74.83021        -1.66024
O         44.35641        63.42097         0.82708
H         43.66948        63.93364         1.30713
O         65.31036        69.26719        -1.07880
H         66.16441        69.69257        -1.31953
H         22.86284        75.18143         0.26017
H         25.45487        74.81469         1.20205
H         27.83893        75.26641         0.03911
H         30.33779        75.29416        -0.03622
H         32.82259        75.31113        -0.14217
H         35.31944        75.29786        -0.26765
H         37.72467        75.25540        -0.16517
H         40.25860        75.32386        -0.32710
H         42.72407        75.33859        -0.35206
H         45.17537        75.28401         0.02753
H         47.69698        75.44684        -0.56780
H         50.02024        75.41175         0.16389
H         52.63632        75.35785         0.36845
H         55.11054        75.35376        -0.06373
H         57.63463        75.30900         0.22081
H         60.09712        75.23154         0.24674
H         62.53510        75.17467         0.16948
H         64.99542        75.15895         0.31653
H         67.58238        75.03700         0.26655
H         22.03130        69.31806         0.74144
H         20.76937        71.41362         0.62043
H         20.72814        73.89846         0.45479
H         24.69342        65.04826         1.28888
H         23.33592        67.20095         0.93871
H         27.10404        60.74783         0.77303
H         25.92350        62.94409         1.20997
H         29.59692        56.51917         1.36058
H         28.36045        58.62280         0.94754
H         32.14325        52.21530         1.60192
H         30.87874        54.34456         1.54351
H         34.70197        47.98438         1.93971
H         33.41183        50.09086         1.66223
H         37.00362        43.73916         1.40854
H         35.93996        45.84630         1.95411
H         39.33197        39.35085         0.52377
H         38.11450        41.54884         0.96007
H         41.69310        35.14905         0.28622
H         40.53389        37.28533         0.35547
H         45.09339        31.74406         0.58021
H         42.95076        32.97022         0.54222
H         47.26453        32.90484         0.44077
H         48.61671        35.12279         0.42120
H         49.81676        37.28521         0.43212
H         51.00601        39.44916         0.30190
H         52.21110        41.55580         0.07747
H         53.45492        43.61105        -0.24463
H         54.75568        45.52592        -0.66075
H         56.09660        48.06394        -0.69834
H         57.18196        50.09175         0.19613
H         58.36099        52.23041         0.53049
H         59.56311        54.36804         0.76279
H         60.79043        56.51439         0.88731
H         62.01189        58.66843         1.03027
H         63.24034        60.80991         1.10207
H         64.50073        62.91247         1.19982
H         65.76371        65.03925         1.53777
H         66.89372        67.21635         1.94590
H         67.94656        69.27194         2.32918
H         69.21492        71.74764         2.39734
H         69.41303        73.95067         1.32618
