         276
 CSIRO Nanostructure Databank - Neutral Graphene Oxide Data Set
C        -11.09722         0.86119        -0.71529
C         -9.84782         1.65897        -0.53806
C         -8.62145         0.90305        -0.16276
C         -7.54516         1.63438         0.65701
C         -6.22635         0.89876         0.51942
C         -4.91612         1.61949         0.61748
C         -3.75982         0.76488         1.13387
C         -2.45178         1.56523         1.26583
C         -1.17048         0.83120         1.01040
C         -0.02833         1.45307         0.62072
C          1.15124         0.66919         0.01065
C          2.49169         1.40034         0.03034
C          3.68267         0.59325        -0.39455
C          4.88867         1.29440        -0.96474
C          6.29105         0.70121        -0.72975
C          7.13179         1.37524         0.37422
C          8.51213         0.73015         0.26151
C          9.77534         1.48288         0.49802
C         11.00654         0.67223         0.75218
C         -9.92734         3.08506        -0.01304
C         -8.59716         3.81844        -0.02046
C         -7.39201         3.08853         0.26801
C         -6.15271         3.74334         0.43027
C         -4.92365         3.09766         0.75176
C         -3.68739         3.83277         0.91682
C         -2.45092         3.06388         1.26569
C         -1.04224         3.70678         1.24450
C         -0.11362         2.94872         0.27218
C          1.23964         3.66512         0.17357
C          2.47963         2.90510        -0.14177
C          3.42928         3.44200        -1.21105
C          4.82222         2.76842        -1.14430
C          6.00045         3.54372        -0.59896
C          7.13648         2.89584         0.15391
C          8.42666         3.64859         0.30562
C          9.62350         2.93864         0.94708
C         -8.59643         5.18807        -0.15818
C         -7.34934         5.95730        -0.14851
C         -6.07648         5.19390         0.16853
C         -4.94996         5.96707         0.82891
C         -3.63130         5.21602         0.82485
C         -2.39779         5.99862         1.27094
C         -1.06351         5.26022         1.03219
C          0.12660         5.96650         0.41314
C          1.11368         5.08567        -0.32290
C          2.22824         5.70553        -1.09771
C          3.52414         4.95967        -1.29809
C          4.81889         5.70939        -1.19910
C          6.12987         4.97751        -1.01853
C          7.35576         5.72551        -0.61625
C          8.47871         4.97073         0.01588
C         -7.35207         7.42017         0.07285
C         -6.17760         8.10782         0.17222
C         -4.89077         7.35076         0.20635
C         -3.61296         8.10313         0.23883
C         -2.34983         7.47032         0.76191
C         -1.10145         8.20267         0.33903
C          0.24614         7.50376         0.20419
C          1.00525         7.92218        -1.03500
C          2.24488         7.19361        -1.28063
C          3.56976         7.92981        -1.10781
C          4.72727         7.09748        -0.57210
C          6.04261         7.85394        -0.49824
C          7.23519         7.19653        -0.43484
C         -6.11424         9.55372         0.23894
C         -4.93713        10.24128         0.21168
C         -3.64823         9.58723         0.14080
C         -2.48655        10.25759        -0.12361
C         -1.23329         9.54442        -0.31355
C         -0.20489        10.11704        -0.98932
C          1.05461         9.39510        -1.37939
C          2.31673        10.02791        -0.77602
C          3.49948         9.35526        -0.70039
C          4.75515         9.96664        -0.29237
C          5.93544         9.28569        -0.26281
C        -11.10206        -0.47927        -0.83074
C         -9.81940        -1.29929        -0.83672
C         -8.84432        -0.57963         0.15224
C         -7.52874        -1.32336         0.38742
C         -6.25763        -0.58866         0.74803
C         -4.97996        -1.36854         0.50362
C         -3.68761        -0.62339         0.47270
C         -2.35616        -1.37589         0.43951
C         -1.26120        -0.65284         1.27157
C         -0.00040        -1.43397         0.98551
C          1.26754        -0.83890         0.45345
C          2.67200        -1.53457         0.58345
C          3.53505        -0.93167        -0.57455
C          4.91158        -1.57787        -0.66325
C          6.18441        -0.81086        -0.57153
C          7.25638        -1.51424         0.21564
C          8.51298        -0.75719         0.51669
C          9.79659        -1.50536         0.65492
C         11.03563        -0.67757         0.67950
C        -10.02549        -2.72548        -0.26472
C         -9.25929        -3.79352        -0.46088
C         -7.17401        -2.62184        -0.29513
C         -6.29769        -3.57573         0.47052
C         -5.01499        -2.85494         0.77073
C         -3.72113        -3.59535         0.93494
C         -2.43322        -2.85023         0.90859
C         -1.13869        -3.61975         1.04729
C         -0.13242        -2.82843         1.49457
C          1.78051        -3.87373         1.14477
C          2.65022        -3.07802         0.45934
C          3.93381        -3.76237         0.14305
C          5.06194        -3.03045        -0.41473
C          6.23049        -3.69206        -0.73422
C          7.65174        -3.09269        -0.90330
C          8.76550        -3.75251        -0.03642
C          9.77685        -2.99081         0.49471
C         -8.77718        -4.98659        -0.80575
C         -7.56135        -5.72406        -0.31295
C         -6.33200        -5.06623         0.28154
C         -4.98954        -5.78104         0.27468
C         -3.70001        -5.08503         0.66524
C         -2.33819        -5.54742         0.08705
C         -1.14863        -5.16536         1.03817
C          0.18570        -5.84729         0.55799
C          1.57123        -5.35379         1.02183
C          2.72596        -6.00722         0.32822
C          4.01425        -5.27657         0.24598
C          5.13513        -5.91517        -0.45936
C          6.14673        -5.11195        -0.89356
C          7.99364        -6.14167        -0.41578
C          8.77615        -5.20402         0.21458
C         -7.36492        -7.08705        -0.84705
C         -6.13092        -7.74135        -0.81106
C         -4.93772        -7.07294        -0.42942
C         -3.64717        -7.74501        -0.59483
C         -2.36311        -7.01810        -0.34885
C         -1.17525        -7.88802         0.05539
C          0.13824        -7.12079         0.06849
C          1.35142        -7.90998        -0.45013
C          2.67280        -7.29551        -0.07683
C          3.95924        -8.08251        -0.08478
C          5.17368        -7.39923        -0.76829
C          6.44562        -8.11137        -0.26965
C          7.67239        -7.52031        -0.05371
C         -6.04718        -9.16164        -1.14011
C         -4.89776        -9.86991        -1.00022
C         -3.62404        -9.22718        -0.72014
C         -2.44784        -9.91534        -0.69994
C         -1.11364        -9.20368        -0.76475
C          0.08268       -10.00712        -0.30405
C          1.27616        -9.40082        -0.16776
C          2.55175       -10.18476         0.16729
C          3.79631        -9.55420        -0.50886
C          5.11314       -10.22572        -0.15123
C          6.28030        -9.54555        -0.03395
O         -5.96091        -3.20301         1.82334
O          4.40100        -4.48528         1.41557
O          0.98759        -3.32527         2.15181
O          6.00651         3.49005         0.87977
O          0.03811         5.76553         1.85131
O          2.30827         3.54610         1.15501
O         -5.48786         1.23453        -0.68291
O         -7.10316        -1.12795         1.77203
O          3.05320         7.64090        -2.42930
O         -8.79133         1.37297        -1.51627
O         -4.35105        -5.91415         1.63650
O         -4.06923         7.43568        -0.99841
O          8.02661        -2.61461        -2.01039
O          1.56496        -5.87519         2.46824
O          3.48497         1.00335         1.00311
O          8.97284        -1.10702         1.86387
O         -2.56061         2.31888         2.53023
O          4.91161         1.88200        -2.29814
O         -2.79102        -7.11080        -1.74445
O         -1.61550         8.28622         1.72282
O         -4.39897        -0.92782        -0.76421
O          7.12496         5.28430        -2.02686
O          0.39053        -1.57734        -0.42989
O          9.28525         1.21680        -0.86084
O          4.22791         5.43760        -2.49303
O         -7.32478        -5.68316         1.15011
O         -3.12553        -3.09886         2.18174
O          5.71396        -1.29778        -1.86948
O         -6.37353         5.55317        -1.19744
O          7.24613        -5.70669        -1.53868
O          1.04758         5.14428        -1.77570
O         -7.16187        -2.69449        -1.52961
O          4.37625         6.80491         0.81696
H          4.32703         7.65073         1.31180
O         -1.43610        -5.68788         2.34277
H         -0.71751        -5.41485         2.95327
O         -9.35552        -1.31503        -2.17206
H         -8.50551        -1.81776        -2.22591
O          2.83916        -1.21690        -1.79413
H          3.42186        -0.97442        -2.54541
O         -4.11561         0.38432         2.49875
H         -3.94621         1.17163         3.07202
O          1.34139        -7.74525        -1.89914
H          1.28167        -6.78932        -2.10400
O          5.11817        -7.54864        -2.20631
H          5.91290        -7.09635        -2.57017
O          6.61469         1.08285         1.67346
H          5.84370         1.67591         1.83664
O         -0.44410         3.48147         2.52074
H         -0.98365         3.92793         3.20537
O         -1.53733        -0.84607         2.66833
H         -2.44629        -0.51072         2.86994
O        -10.34177         2.99128         1.37317
H        -11.15401         2.44342         1.41418
O          9.44887         2.95321         2.37189
H          8.61505         2.48527         2.59172
O          7.05966         0.91934        -1.91359
H          6.68610         0.36062        -2.63031
O          0.80571         0.68207        -1.40018
H          0.31141        -0.16032        -1.57475
O         -7.94478         1.58981         2.04984
H         -8.77084         2.13065         2.13093
O          2.91995        -6.18555         2.86904
H          3.40601        -5.31963         2.77012
O         -9.55786        -0.59807         1.41033
H         -8.89773        -0.38976         2.11581
O         -2.55435         6.10079         2.71813
H         -1.92693         6.80580         3.00809
O         -1.41664        -8.30711         1.41829
H         -1.46209        -7.49996         1.99243
O         -5.31870         6.12680         2.22987
H         -4.48247         6.20021         2.75237
O          3.28254        -1.25310         1.84056
H          2.82055        -1.76967         2.53380
O         -0.70849         3.02975        -1.03453
H         -0.19173         2.44508        -1.64017
O          1.19476         9.58182        -2.81050
H          1.91407         8.97321        -3.10984
O          1.09353         7.98060         1.29102
H          0.70859         7.60752         2.11872
O         -1.93616        -1.36415        -0.93106
H         -2.74303        -1.43666        -1.49184
O          2.72868       -10.29132         1.57994
H          3.28729        -9.53176         1.87543
O         -0.91534        -8.94148        -2.16994
H         -1.64169        -8.34248        -2.46625
O          4.32407        -8.13028         1.33864
H          3.85030        -7.41272         1.83795
O          2.78282         3.01361        -2.42258
H          3.23776         3.44735        -3.17693
O          6.73211        -2.05794         1.36055
H          7.45009        -2.02809         2.04831
O          3.56809        -9.70240        -1.91652
H          4.17527        -9.09548        -2.40075
O         -2.13881        -4.75047        -1.09965
H         -2.40467        -5.30917        -1.87073
H         11.99796        -1.20435         0.76771
H         11.95057         1.22445         0.88012
H         10.55679         3.51386         0.72627
H          9.41441         5.52551         0.19347
H          8.15973         7.77009        -0.26074
H          6.86238         9.82736        -0.02121
H          4.74658        11.04254        -0.06333
H          2.27526        11.09481        -0.50508
H         -0.33883        11.12617        -1.40807
H         -2.50206        11.34379        -0.30007
H         -4.95021        11.34140         0.20451
H         -7.06565        10.10595         0.25937
H         -8.31544         7.95249         0.08268
H         -9.55079         5.73026        -0.24064
H        -10.69524         3.68110        -0.58060
H        -12.04891         1.41700        -0.74835
H        -12.05754        -1.00501        -0.98124
H        -10.78799        -2.79432         0.53462
H         -9.33571        -5.53252        -1.59080
H         -8.24524        -7.63224        -1.21945
H         -6.98073        -9.67570        -1.41093
H         -4.89566       -10.95636        -1.17167
H         -2.46374       -11.00493        -0.86356
H         -0.02112       -11.09244        -0.14978
H          2.42380       -11.22436        -0.23419
H          5.11612       -11.31773        -0.00938
H          7.19552       -10.10363         0.22472
H          8.46191        -8.13068         0.41674
H          9.40678        -5.53959         1.05354
H         10.60517        -3.51808         0.99938
