         630
 CSIRO Nanostructure Databank - Neutral Graphene Oxide Data Set
C         22.96238        27.37720         0.77830
C         22.97088        28.76440         0.86701
C         23.04099        31.68150         0.00912
C         23.07982        33.00947        -0.27601
C         23.01240        35.96795        -0.45642
C         23.00788        37.32732        -0.58520
C         23.02718        40.25820        -0.97491
C         23.00286        41.60824        -0.94374
C         22.98632        44.56822        -0.76865
C         22.98039        45.93787        -1.00171
C         25.33168        24.50913         0.39074
C         24.18700        25.21944         0.52587
C         25.34655        27.40163         0.31645
C         24.15497        26.67208         0.51602
C         25.33773        28.81091         0.35254
C         24.15034        29.49975         0.64084
C         25.44220        31.69468         0.56963
C         24.11800        31.00486         0.83351
C         25.41583        33.20514         0.69545
C         24.20773        33.84532         0.04190
C         25.44530        35.99721        -0.03793
C         24.21175        35.23551        -0.14217
C         25.44782        37.39964        -0.24694
C         24.21426        38.10603        -0.48254
C         25.45394        40.24647        -0.52311
C         24.21753        39.50850        -0.61413
C         25.46068        41.65837        -0.57054
C         24.15356        42.37966        -0.34558
C         25.42539        44.50816        -0.90017
C         24.18603        43.83927        -0.72564
C         25.42883        45.92069        -1.08918
C         24.19929        46.64075        -1.14776
C         25.42849        48.73790        -1.33431
C         24.22683        48.05334        -1.32628
C         27.95347        23.10179         0.59588
C         27.92065        24.49420         0.46954
C         26.63180        25.17235         0.15875
C         27.86468        27.37784         0.56806
C         26.62512        26.67608         0.10908
C         27.83824        28.86876         0.57210
C         26.60199        29.54264        -0.03616
C         27.87247        31.69915        -0.07678
C         26.57060        31.01880         0.27735
C         27.88962        33.17487         0.22407
C         26.69871        33.88527         0.28064
C         27.91868        36.00526        -0.05046
C         26.68733        35.30255         0.10853
C         27.92139        37.41571        -0.22616
C         26.68706        38.12020        -0.29307
C         27.92296        40.25433        -0.54444
C         26.69207        39.53747        -0.45362
C         27.92286        41.66693        -0.71547
C         26.67945        42.37329        -0.69720
C         27.90641        44.50374        -1.04500
C         26.67640        43.79871        -0.85603
C         27.89044        45.90675        -1.22159
C         26.66857        46.62435        -1.19338
C         27.91434        48.75916        -1.00110
C         26.66070        48.05395        -1.22436
C         27.91016        50.11796        -0.58502
C         30.38528        23.09889         0.74572
C         29.15558        22.41634         0.74094
C         30.38484        24.52452         0.67013
C         29.14482        25.23027         0.55066
C         30.36305        27.38642         0.67893
C         29.16057        26.66379         0.57066
C         30.37510        28.84264         0.72354
C         29.13192        29.59263         0.57032
C         30.31385        31.74097         0.62721
C         29.09843        30.95681         0.40773
C         30.36149        33.16817         0.22515
C         29.14000        33.87402         0.12494
C         30.39166        35.96168        -0.21720
C         29.15273        35.28618        -0.02902
C         30.39107        37.39368        -0.37111
C         29.16477        38.11886        -0.35652
C         30.38872        40.24258        -0.67088
C         29.16138        39.53722        -0.50873
C         30.39630        41.66956        -0.86538
C         29.16056        42.38377        -0.88270
C         30.41062        44.51737        -1.20412
C         29.16135        43.79475        -1.04776
C         30.42003        45.90720        -1.35887
C         29.13782        46.65350        -1.61820
C         30.36971        48.74313        -0.81526
C         29.13477        48.07060        -1.08166
C         30.34031        50.12742        -0.40377
C         29.09039        50.77341        -0.29137
C         32.86772        20.27446         0.83630
C         31.67512        20.96578         0.86662
C         32.86676        23.09448         0.74566
C         31.64129        22.38008         0.79705
C         32.86098        24.53154         0.72384
C         31.62138        25.24629         0.70531
C         32.85557        27.38374         0.74055
C         31.61785        26.67591         0.70822
C         32.86465        28.82287         0.77594
C         31.59806        29.52068         0.78967
C         32.87378        31.75917         0.72688
C         31.59288        30.99414         0.88579
C         32.85061        33.01075        -0.13676
C         31.58507        33.82948         0.01985
C         32.87261        35.86258        -0.61528
C         31.59389        35.20857        -0.26204
C         32.89554        37.36604        -0.72216
C         31.60830        38.10273        -0.55299
C         32.87393        40.15448        -1.11446
C         31.59319        39.49013        -0.69374
C         32.90394        41.64056        -0.72980
C         31.62734        42.39059        -1.03051
C         32.95681        44.48697        -1.51789
C         31.65046        43.77061        -1.17144
C         32.94949        45.96194        -1.20842
C         31.69015        46.69898        -1.62566
C         32.83862        48.84363        -0.87226
C         31.60076        48.08944        -1.03033
C         32.79210        50.17077        -0.24674
C         31.57188        50.82636        -0.10099
C         32.71059        52.95662         0.38423
C         31.57092        52.24750         0.18856
C         35.38356        18.81161         0.61530
C         35.35189        20.23346         0.63126
C         34.10694        20.95389         0.73316
C         35.34440        23.09092         0.64491
C         34.10508        22.37807         0.71193
C         35.33653        24.52207         0.66403
C         34.09496        25.23868         0.70941
C         35.33482        27.37770         0.72218
C         34.09402        26.67024         0.72723
C         35.33882        28.81312         0.73999
C         34.09651        29.51419         0.79485
C         35.39326        31.68449         0.37362
C         34.14458        30.99379         0.76807
C         35.39367        33.06449         0.11378
C         34.14189        33.80371        -0.05985
C         35.40923        35.91854        -0.62511
C         34.14202        35.13415        -0.35418
C         35.37858        37.29783         0.07813
C         34.15170        38.11110        -0.40625
C         35.08235        40.38242         0.03288
C         34.06101        39.47688        -0.44986
C         35.34982        41.62779        -0.48625
C         34.20833        42.29515        -1.22732
C         35.36071        44.44943        -0.68533
C         34.19275        43.78556        -1.01017
C         35.36160        45.89974        -0.62395
C         34.11842        46.60800        -0.87806
C         35.38310        48.76812        -0.33386
C         34.17412        48.09063        -0.84919
C         35.34580        50.15644        -0.02794
C         34.03392        50.78636         0.22788
C         35.28066        53.02168         0.51986
C         34.00071        52.28371         0.57807
C         35.28463        54.42772         0.61925
C         37.80563        18.80436         0.32533
C         36.56371        18.12366         0.46545
C         37.81004        20.23042         0.37495
C         36.57650        20.94418         0.52163
C         37.81146        23.08980         0.48452
C         36.57423        22.37876         0.55283
C         37.80635        24.51736         0.55493
C         36.56810        25.23061         0.63558
C         37.80575        27.37047         0.68804
C         36.56765        26.66221         0.67637
C         37.80447        28.79967         0.72431
C         36.57564        29.52172         0.71106
C         37.82593        31.67205         0.54604
C         36.60988        30.96852         0.54951
C         37.85968        33.06095         0.25505
C         36.63968        33.76133         0.00925
C         37.89806        35.82869        -0.36532
C         36.68042        35.15885        -0.28928
C         37.89422        37.28389        -0.78584
C         36.71076        37.99531        -0.16381
C         37.97347        40.14143        -0.14880
C         36.88996        39.27904         0.24947
C         37.87625        41.57435        -0.20605
C         36.61899        42.31245        -0.31105
C         37.83413        44.47172        -0.41328
C         36.61278        43.71823        -0.45893
C         37.80165        45.87879        -0.39386
C         36.56432        46.60189        -0.42061
C         37.81949        48.77336        -0.08019
C         36.59165        48.05150        -0.28008
C         37.79500        50.20857         0.08196
C         36.53206        50.88764         0.18252
C         37.73550        53.05759         0.43709
C         36.50766        52.32274         0.40399
C         37.71916        54.47740         0.57146
C         36.46875        55.13842         0.64946
C         40.23161        15.97906        -0.17035
C         39.06033        16.66095         0.03571
C         40.25610        18.80949         0.00953
C         39.03308        18.08738         0.12931
C         40.26186        20.23859         0.09309
C         39.04333        20.94640         0.26652
C         40.27301        23.09764         0.26463
C         39.04374        22.38275         0.33873
C         40.27148        24.51929         0.42601
C         39.04112        25.22594         0.55788
C         40.27455        27.36023         0.76152
C         39.04444        26.65686         0.66500
C         40.24698        28.78359         0.86742
C         39.05028        29.49234         0.80318
C         40.34222        31.66522         0.66079
C         39.05713        30.98179         1.06404
C         40.34999        33.05642         0.37875
C         39.11117        33.76782         0.19444
C         40.38703        35.86372        -0.12786
C         39.13304        35.14923        -0.11012
C         40.41129        37.29245        -0.34084
C         39.18745        38.01788        -0.49136
C         40.39445        40.18874        -0.65634
C         39.16806        39.42668        -0.45540
C         40.36443        41.63316        -0.36236
C         39.09734        42.31200        -0.27634
C         40.29582        44.44807        -0.17479
C         39.09251        43.75229        -0.31692
C         40.35966        45.89654        -0.34674
C         39.05113        46.65514        -0.46301
C         40.29472        48.78214         0.01785
C         39.05965        48.09619        -0.14033
C         40.26819        50.23282         0.14410
C         39.00330        50.93514         0.14399
C         40.19508        53.11201         0.33668
C         38.99432        52.37422         0.30447
C         40.19341        54.52613         0.50676
C         38.95669        55.21953         0.61752
C         40.14739        57.34205         0.80201
C         38.96850        56.63925         0.75558
C         42.68261        15.98586        -0.49991
C         41.47183        16.67783        -0.28942
C         42.71602        18.80987        -0.30951
C         41.48067        18.10100        -0.19242
C         42.69414        20.24378        -0.27239
C         41.50389        20.94997        -0.06099
C         42.71680        23.12596        -0.05078
C         41.50787        22.40270         0.03385
C         42.73085        24.54389         0.20983
C         41.50920        25.23416         0.46248
C         42.77378        27.30437         0.84201
C         41.52593        26.64184         0.70432
C         42.80428        28.75567         1.14501
C         41.50522        29.52341         1.11902
C         42.79263        31.64078         0.68421
C         41.54656        30.96878         0.80065
C         42.81489        33.04281         0.48556
C         41.59047        33.75218         0.31180
C         42.83897        35.89256         0.24404
C         41.59714        35.17799         0.12632
C         42.84999        37.31588         0.12863
C         41.64220        37.98253        -0.21712
C         42.91714        40.16237        -0.13965
C         41.71274        39.41492        -0.50199
C         42.87109        41.62043        -0.32976
C         41.56717        42.30440        -0.21151
C         42.83379        44.51433         0.28226
C         41.52969        43.72382         0.14177
C         42.79086        45.97057         0.11436
C         41.59821        46.64418        -0.03362
C         42.77410        48.79089         0.22678
C         41.54753        48.09061         0.00615
C         42.70297        50.23422         0.52697
C         41.44723        50.95046         0.30150
C         42.74754        53.16429         0.41723
C         41.49047        52.42523        -0.00649
C         42.70285        54.58905         0.54632
C         41.43350        55.26043         0.57334
C         42.62132        57.39638         0.83513
C         41.40120        56.66796         0.72882
C         43.88729        16.67811        -0.56916
C         45.23396        18.79133        -0.37638
C         43.92936        18.07695        -0.46663
C         45.22126        20.29013        -0.38221
C         43.92406        20.99024        -0.71564
C         45.16777        23.11541        -0.39460
C         43.96233        22.44560        -0.32022
C         45.17726        24.62004        -0.39442
C         43.95570        25.25387         0.22378
C         45.28144        27.29463         0.85653
C         43.98160        26.60640         0.61102
C         45.30878        28.78896         0.96644
C         44.03883        29.52419         0.89642
C         45.29768        31.62921         0.76031
C         44.03731        30.90203         0.76736
C         45.26694        33.05698         0.77284
C         44.07226        33.75038         0.55176
C         45.26583        35.93070         0.56774
C         44.06189        35.19859         0.45281
C         45.25148        37.33523         0.60666
C         44.05904        38.05167         0.35609
C         45.27888        40.26551         0.54426
C         44.06997        39.50646         0.26970
C         45.34468        41.64068         0.39398
C         44.16469        42.39580        -0.06221
C         45.31651        44.54283         0.45377
C         44.12022        43.83091         0.19848
C         45.30876        45.96911         0.41526
C         44.09389        46.68252        -0.11898
C         45.24986        48.82696         0.43750
C         44.01877        48.13599         0.26494
C         45.23414        50.29610         0.28482
C         43.97735        51.02509         0.57788
C         45.20842        53.22336         0.63135
C         43.96624        52.50520         0.48786
C         45.18207        54.64468         0.71158
C         43.90953        55.32920         0.69927
C         43.83192        56.74811         0.82779
C         47.63041        18.87191        -0.98219
C         46.50627        18.15043        -0.75287
C         47.67523        20.32443        -0.93506
C         46.46838        21.03076        -0.69705
C         47.65245        23.17098        -0.79996
C         46.42747        22.43674        -0.65558
C         47.70455        24.56640        -0.53094
C         46.50281        25.17881         0.06818
C         47.78590        27.37978         0.19484
C         46.57343        26.59312         0.54099
C         47.72678        28.81595         0.31749
C         46.56476        29.50203         0.65686
C         47.78943        31.64823         0.79773
C         46.52659        30.93766         0.71128
C         47.80005        33.07067         1.02945
C         46.49995        33.82682         1.20573
C         47.76357        35.98917         1.03301
C         46.58073        35.19135         0.51707
C         47.75504        37.33872         1.14660
C         46.46005        38.05636         1.07449
C         47.76382        40.26065         1.07254
C         46.46034        39.55364         1.08175
C         47.72652        41.68978         1.00594
C         46.54526        42.38624         0.73971
C         47.71034        44.58094         1.02155
C         46.52657        43.83265         0.73941
C         47.68399        45.99643         0.98515
C         46.48711        46.69137         0.64974
C         47.71057        48.86232         0.75981
C         46.48066        48.14645         0.58269
C         47.68364        50.31956         0.88312
C         46.50098        51.08204         0.43090
C         47.68664        53.24063         0.71476
C         46.46206        52.54125         0.66242
C         47.63149        54.65978         0.79936
C         46.42524        55.33102         0.80642
C         50.11051        20.38135        -1.51795
C         48.87013        21.05075        -1.19306
C         50.06446        23.23791        -1.28635
C         48.86407        22.48033        -1.11242
C         50.09785        24.62738        -1.04732
C         48.89521        25.30676        -0.62421
C         50.10096        27.51888        -0.82355
C         48.89840        26.72804        -0.33827
C         50.19980        28.88906        -0.18353
C         48.90634        29.65337        -0.13135
C         50.25453        31.54497         1.01589
C         48.97649        30.94748         0.63395
C         50.28062        33.06891         1.14662
C         48.98601        33.76423         1.04607
C         50.32442        35.94596         1.26078
C         48.99790        35.21692         1.28350
C         50.28035        37.40917         1.10458
C         49.01012        38.11094         1.56459
C         50.21295        40.25922         0.89269
C         48.96614        39.56638         1.15395
C         50.21721        41.69715         0.94675
C         48.97312        42.40204         1.44262
C         50.17082        44.56358         1.17332
C         48.96507        43.88498         1.17585
C         50.22805        46.02490         1.35758
C         48.90231        46.76874         1.27891
C         50.19644        48.89456         0.87512
C         48.94007        48.21163         0.98215
C         50.22576        50.30357         0.71105
C         49.01463        51.09750         0.94106
C         50.13952        53.11625         0.16909
C         48.95899        52.52663         0.60203
C         51.24490        21.06605        -1.79877
C         52.62384        23.25762        -1.59016
C         51.28327        22.53378        -1.74252
C         52.59794        24.62532        -1.03615
C         51.36057        25.33993        -0.99815
C         52.60649        27.40202        -0.58014
C         51.38449        26.73164        -0.72991
C         52.64364        28.81861        -0.28176
C         51.39635        29.49040         0.04909
C         52.71197        31.63748         0.33290
C         51.55702        30.77881         0.82783
C         52.70830        33.05383         0.41459
C         51.52237        33.80359         0.81025
C         52.66009        35.96781         0.40785
C         51.52308        35.19987         0.81567
C         52.65764        37.36783         0.43034
C         51.42524        38.09447         0.74946
C         52.61084        40.23478         0.22010
C         51.39259        39.53880         0.63785
C         52.61836        41.76084         0.33026
C         51.39193        42.42068         0.81726
C         52.62695        44.53884         1.04358
C         51.41046        43.84647         1.04101
C         52.66417        45.99153         0.85212
C         51.46733        46.75138         1.01093
C         52.63184        48.80461         0.28208
C         51.44110        48.13872         0.74899
C         52.61302        50.21565         0.04244
C         51.39737        50.98669         0.27463
C         51.32929        52.37248         0.03907
C         55.03306        23.10004        -1.07155
C         53.91767        22.54137        -1.56567
C         55.03238        24.43456        -0.35990
C         53.80215        25.24887        -0.68977
C         55.07660        27.35736        -0.58343
C         53.84203        26.66766        -0.57273
C         55.04031        28.83787        -0.88498
C         53.83151        29.52497        -0.31540
C         55.10892        31.66099        -0.22095
C         53.88286        30.95281        -0.06997
C         55.11330        33.07713        -0.11509
C         53.89233        33.76709         0.09974
C         55.13977        35.96215         0.00219
C         53.83339        35.24308        -0.19482
C         55.12589        37.37786         0.06880
C         53.88711        38.09581         0.19179
C         55.11822        40.23868         0.11082
C         53.91093        39.51818         0.20709
C         55.18249        41.71071         0.38159
C         53.89806        42.43038         0.60814
C         55.47529        44.73392         0.27402
C         53.81580        43.71481         1.10514
C         54.83113        45.80430        -0.30468
C         53.78424        46.63117         0.25881
C         54.99768        48.71568        -0.51819
C         53.81319        48.04100        -0.02297
C         54.93362        50.10557        -0.69415
C         53.77617        50.83523        -0.43966
C         57.55581        24.54145        -0.44449
C         56.32778        25.21171        -0.50492
C         57.55026        27.33645        -0.70462
C         56.31410        26.63255        -0.60243
C         57.55987        28.80208        -0.89156
C         56.32880        29.56586        -0.63045
C         57.60930        31.67108        -0.40345
C         56.35145        30.93827        -0.44891
C         57.59519        33.09810        -0.25208
C         56.35915        33.81096        -0.18025
C         57.59945        35.96269        -0.09970
C         56.35541        35.24000        -0.08541
C         57.59046        37.39219        -0.12410
C         56.35481        38.10501        -0.03855
C         57.56617        40.22478        -0.38726
C         56.35002        39.53110        -0.08463
C         57.47179        41.66094        -0.85782
C         56.46422        42.45935        -0.04340
C         57.54320        44.52062        -1.03539
C         56.47311        43.91641        -0.34373
C         57.57383        45.96316        -1.18344
C         56.39191        46.73868        -1.22505
C         57.54813        48.74209        -0.65220
C         56.30462        48.08091        -0.79965
C         58.76220        25.23709        -0.49116
C         60.02682        27.37213        -0.52673
C         58.77516        26.64198        -0.62231
C         60.08349        28.72429        -0.53004
C         58.88644        29.53960        -0.81170
C         60.04789        31.70932        -0.35220
C         58.84416        30.98923        -0.49568
C         60.04240        33.08517        -0.20229
C         58.83227        33.81311        -0.18452
C         60.03894        36.00372        -0.14542
C         58.83076        35.25833        -0.13128
C         60.03251        37.38142        -0.20987
C         58.81721        38.11060        -0.23779
C         59.99362        40.26702        -0.74623
C         58.78586        39.53798        -0.44635
C         59.99452        41.61963        -0.97564
C         58.79723        42.39095        -0.98408
C         59.99771        44.55790        -1.33119
C         58.78901        43.78445        -1.17320
C         60.01751        45.92443        -1.24466
C         58.79958        46.67847        -1.11150
C         58.75303        48.07476        -0.88556
O         39.83883        46.33299        -1.66931
O         43.36378        50.57208         1.83302
O         45.29054        19.58566         0.88571
O         26.73331        25.91911        -1.12472
O         51.94670        23.16987        -2.89036
O         58.27041        29.23208        -2.11727
O         35.89637        39.87261         1.05192
O         52.46158        41.10380        -0.96609
O         42.12747        29.15829         2.39829
O         50.27732        32.19269         2.33559
O         46.17702        38.80832         2.31760
O         55.19998        46.11168        -1.63354
O         54.99896        44.33895         1.54120
O         48.23806        50.77807         2.14446
O         45.35474        27.92948         2.17502
O         32.86479        36.53354        -1.93708
O         49.53771        46.45811         2.57389
O         27.96467        31.74330        -1.50865
O         49.71273        35.52031         2.54121
O         45.98394        50.72886        -0.90289
O         41.17381        39.80165        -1.82390
O         27.60070        28.13439         1.81387
O         43.71280        42.09026        -1.44454
O         56.26932        42.04316         1.32395
O         33.71647        48.74166        -2.07870
O         33.94828        51.26237         1.62293
O         33.61822        31.74570         1.96646
O         46.72368        25.46086         1.47988
O         30.81959        31.53729         2.00884
O         42.07970        44.03330         1.48496
O         26.73146        29.43266        -1.47587
H         27.21698        30.25531        -1.79129
O         54.86802        28.90213        -2.36308
H         55.74261        28.70517        -2.76541
O         51.98538        30.32250         2.14744
H         51.66877        31.00189         2.78978
O         32.79967        32.47387        -1.50201
H         32.61550        33.21710        -2.11556
O         34.33182        42.09763        -2.66598
H         35.24343        42.35054        -2.92258
O         45.12832        25.01997        -1.81422
H         44.38440        24.53911        -2.23520
O         35.20377        37.07014         1.49222
H         35.32086        37.93550         1.94370
O         32.96083        40.00242        -2.54495
H         32.97796        39.04261        -2.74754
O         53.58698        35.30314        -1.66470
H         54.34491        34.85904        -2.10272
O         49.05500        38.11786         3.02017
H         49.14726        37.17505         3.30299
O         48.98704        42.28382         2.91102
H         49.71450        42.84750         3.25032
O         25.27066        33.49916         2.14000
H         25.20544        34.47336         2.23892
O         48.62954        30.04232        -1.52480
H         48.82229        29.24484        -2.08169
O         23.74416        31.21509         2.22745
H         24.12477        32.08375         2.50480
O         43.87002        20.98292        -2.18909
H         43.00220        21.35302        -2.45668
O         41.56958        52.46792        -1.49247
H         40.71761        52.12788        -1.84197
O         46.85023        34.91674        -0.88915
H         46.74656        35.74944        -1.39515
O         33.00436        44.41124        -3.00116
H         33.29832        43.48600        -3.22035
O         46.33320        34.09556         2.62181
H         46.39279        33.24779         3.10952
O         29.05446        46.79917        -3.08839
H         29.98025        46.98395        -3.40064
O         23.93468        42.37422         1.11533
H         23.89697        41.43459         1.39537
O         54.93161        24.13143         1.07719
H         54.06149        23.70747         1.23358
O         35.42859        36.20994        -2.04093
H         35.42180        35.36487        -2.53435
O         44.27451        46.66895        -1.59018
H         43.50269        47.12597        -1.98871
O         31.76943        46.86407        -3.09344
H         32.20982        46.04657        -3.43916
O         56.89047        41.61063        -2.20546
H         57.52376        41.13959        -2.78691
O         49.86329        27.73404        -2.27028
H         50.72067        27.98760        -2.67545
O         32.98748        41.68768         0.72470
H         32.15219        41.32645         1.09058
O         38.99431        31.12596         2.52789
H         39.76644        30.65143         2.90560
O         37.77226        37.33878        -2.24489
H         38.62111        37.02954        -2.62488
H         22.02915        26.81923         0.94353
H         22.04381        29.29794         1.12019
H         22.15260        31.09739        -0.27671
H         22.23031        33.45918        -0.81276
H         22.06190        35.42410        -0.54420
H         22.05361        37.83643        -0.77650
H         22.14281        39.71313        -1.33422
H         22.09406        42.14321        -1.25388
H         22.03060        44.05407        -0.59840
H         22.03003        46.48935        -1.03728
H         25.29598        23.41413         0.48376
H         23.23806        24.69046         0.70225
H         25.41677        49.83262        -1.42599
H         23.27744        48.60125        -1.41037
H         27.02246        22.52182         0.55060
H         26.95943        50.65426        -0.46774
H         29.12211        21.32215         0.81580
H         29.03555        51.81744         0.04190
H         32.83700        19.17848         0.88269
H         30.74260        20.39149         0.93595
H         32.65735        54.05322         0.42505
H         30.62542        52.80026         0.11315
H         34.45365        18.23735         0.71436
H         34.33735        54.97561         0.70687
H         36.53131        17.02678         0.45249
H         36.41970        56.22971         0.74967
H         40.22957        14.88209        -0.24459
H         38.12756        16.08899         0.12306
H         40.13608        58.43567         0.91417
H         38.02393        57.19317         0.83055
H         42.67208        14.88969        -0.58098
H         42.57957        58.48974         0.94347
H         44.81901        16.10898        -0.69007
H         44.75131        57.33939         0.93114
H         48.54494        18.32545        -1.24975
H         46.54156        17.05810        -0.87285
H         48.56617        55.23373         0.86783
H         46.44058        56.42704         0.87452
H         50.13227        19.28508        -1.57440
H         50.15884        54.18384        -0.09185
H         52.15249        20.52687        -2.10305
H         52.22273        52.91273        -0.29988
H         55.97424        22.53194        -1.10975
H         53.96955        21.55903        -2.05795
H         55.81401        50.63958        -1.07715
H         53.79254        51.91563        -0.63192
H         57.57944        23.44925        -0.32885
H         57.57852        49.79735        -0.34634
H         59.71401        24.69305        -0.41168
H         60.94222        26.78740        -0.35164
H         61.04169        29.22494        -0.33197
H         61.01164        31.18562        -0.40185
H         61.00564        33.60481        -0.12384
H         61.00752        35.48761        -0.13460
H         60.99496        37.90823        -0.24237
H         60.95210        39.73357        -0.77479
H         60.95773        42.11761        -1.15444
H         60.95232        44.02864        -1.45907
H         60.97464        46.46401        -1.29072
H         59.69791        48.63042        -0.80132
