         630
 CSIRO Nanostructure Databank - Neutral Graphene Oxide Data Set
C         23.58731        29.15240        -3.33059
C         23.42918        30.15660        -2.41826
C         23.20908        32.38771        -0.56607
C         23.14780        33.53261         0.18244
C         23.01781        35.86221         1.95658
C         22.98939        37.02255         2.70854
C         23.00511        40.69785         2.66684
C         22.96947        41.80095         1.82110
C         22.93633        44.07824        -0.01975
C         22.93893        45.26536        -0.72138
C         26.20682        26.93242        -4.72020
C         24.98603        27.55695        -4.54448
C         25.85587        28.57490        -2.47965
C         24.81821        28.41324        -3.43957
C         25.59995        29.52862        -1.38439
C         24.45948        30.46087        -1.47576
C         25.56681        32.02602         0.10691
C         24.40331        31.60102        -0.65046
C         25.51749        33.32375         0.78225
C         24.30715        34.04997         0.83724
C         25.47308        35.96503         1.89424
C         24.25550        35.30278         1.55650
C         25.43394        37.26307         2.47848
C         24.19844        37.70099         2.94625
C         25.39440        40.32381         2.15045
C         24.19402        39.97495         2.80841
C         25.39294        41.59562         1.47995
C         24.15438        42.27697         1.23004
C         25.37846        44.11642         0.12554
C         24.14786        43.48749         0.43414
C         25.38415        45.37853        -0.54160
C         24.15452        45.95514        -0.97229
C         25.35687        47.89431        -1.81868
C         24.17457        47.21418        -1.63432
C         28.95919        24.26560        -3.78687
C         28.94801        25.58625        -3.32429
C         27.23197        27.11545        -3.77891
C         28.21937        28.12876        -1.64297
C         27.10075        27.88794        -2.59506
C         28.10300        29.26518        -0.76648
C         26.79288        29.93597        -0.51995
C         27.77854        31.56587         1.15762
C         26.73351        31.26972         0.10941
C         27.87060        33.04226         1.57334
C         26.68384        33.88827         1.37353
C         27.94434        35.92749         2.07329
C         26.71685        35.24672         1.78084
C         27.94147        37.36866         2.30074
C         26.67999        38.09630         2.75327
C         27.82871        40.20819         1.98826
C         26.62961        39.55608         2.23770
C         27.86672        41.56825         1.48413
C         26.62597        42.22126         1.14833
C         27.82412        44.23019         0.34458
C         26.62160        43.52250         0.54112
C         27.83939        45.49932        -0.29443
C         26.60877        46.08144        -0.75090
C         27.83578        48.09726        -1.49613
C         26.60010        47.36110        -1.36763
C         27.86793        49.40458        -2.03918
C         30.60935        23.72065        -2.09384
C         29.73677        23.32019        -3.12963
C         30.53246        25.05187        -1.61045
C         29.60289        25.99001        -2.14817
C         30.49743        27.78729        -0.74581
C         29.40574        27.32362        -1.54360
C         30.45531        29.07317        -0.14634
C         29.21312        29.74592        -0.04800
C         30.42969        31.66425         1.12484
C         29.13461        30.92313         0.86141
C         30.45699        33.10518         1.47105
C         29.18772        33.76828         1.82618
C         30.41532        35.92068         1.96057
C         29.18327        35.24422         1.92520
C         30.43254        37.34975         2.42032
C         29.11614        38.06706         2.24921
C         30.36647        40.23170         1.92639
C         29.12060        39.56552         2.46417
C         30.34579        41.55260         1.44521
C         29.08551        42.23736         1.27082
C         30.30893        44.24641         0.30922
C         29.08166        43.72439         1.00132
C         30.31472        45.52679        -0.23452
C         29.06594        46.20154        -0.49613
C         30.29283        48.24392        -1.17916
C         29.06613        47.50852        -1.06443
C         30.27622        49.57360        -1.67606
C         29.04576        50.12135        -2.11908
C         32.89506        20.72480        -2.02687
C         31.73768        21.47763        -2.10925
C         32.89822        23.37457        -1.14506
C         31.72504        22.83909        -1.72525
C         32.84391        24.70677        -0.51592
C         31.57202        25.53833        -0.68990
C         32.87184        27.55791        -0.05572
C         31.67567        26.99299        -0.51736
C         32.90119        28.95870         0.25150
C         31.67736        29.67249         0.31619
C         32.89883        31.70747         0.89181
C         31.68722        31.03872         0.67786
C         32.89364        33.20950         0.89835
C         31.62279        33.82099         1.43323
C         32.88193        35.93823         1.70545
C         31.64801        35.24811         1.71491
C         32.90135        37.43620         1.56476
C         31.62901        38.12058         1.96834
C         32.84685        40.22334         1.72109
C         31.61156        39.52172         1.93066
C         32.82747        41.53364         1.22578
C         31.56963        42.16005         1.01250
C         32.84907        44.16452         0.02075
C         31.52142        43.44103         0.30212
C         32.80224        45.61334        -0.19887
C         31.56262        46.23149        -0.47116
C         32.75184        48.35821        -0.76562
C         31.54154        47.61227        -0.81464
C         32.68860        49.80993        -1.03781
C         31.49103        50.36715        -1.68244
C         32.78232        52.34332        -2.38157
C         31.56357        51.64144        -2.22859
C         35.46260        19.26292        -2.18846
C         35.37008        20.58105        -1.75557
C         34.12168        21.30431        -1.62302
C         35.33390        23.26169        -0.62932
C         34.11323        22.64621        -1.14047
C         35.31742        24.65842        -0.20665
C         34.10724        25.40587        -0.22694
C         35.33695        27.47538         0.28937
C         34.10302        26.79394         0.03695
C         35.35786        28.87249         0.60586
C         34.11117        29.60357         0.62514
C         35.29809        31.59647         1.58534
C         34.09698        30.98050         0.93063
C         35.33581        33.10275         1.51119
C         34.15669        33.82887         1.43434
C         35.37363        35.91785         1.81915
C         34.14065        35.24850         1.64476
C         35.38230        37.33689         2.24998
C         34.10001        38.09554         2.23108
C         35.38273        40.22072         1.70609
C         34.11499        39.62434         2.28454
C         35.34076        41.55642         1.22297
C         34.08847        42.22986         0.97696
C         35.30507        44.29084         0.34812
C         34.09475        43.54320         0.49560
C         35.26904        45.67263         0.02255
C         34.00842        46.35935        -0.17225
C         35.23525        48.57887        -0.19532
C         33.97662        47.75433        -0.42659
C         35.27850        49.87744        -0.97743
C         34.00409        50.57653        -1.20047
C         35.28160        52.43683        -2.27365
C         34.00311        51.81366        -1.98740
C         35.34468        53.67635        -2.95494
C         37.87907        19.08584        -1.73510
C         36.67389        18.53693        -2.16629
C         37.94366        20.53546        -1.50590
C         36.61236        21.31522        -1.49085
C         37.76492        23.07761        -0.10558
C         36.53777        22.57215        -0.72728
C         37.75700        24.56995         0.31936
C         36.52679        25.33363         0.08859
C         37.82305        27.41686         0.41339
C         36.56065        26.74212         0.25879
C         37.83398        28.83935         0.68178
C         36.57944        29.54331         0.85417
C         37.77835        31.61874         1.48289
C         36.59462        30.93114         1.21608
C         37.81352        33.03952         1.71500
C         36.58994        33.76675         1.69482
C         37.83993        35.88636         1.78153
C         36.60029        35.19587         1.76939
C         37.77390        37.36036         1.50416
C         36.70025        38.09747         2.32592
C         37.81057        40.16778         1.41466
C         36.59991        39.52938         1.78665
C         37.80644        41.54487         1.05487
C         36.56262        42.23417         0.93923
C         37.77384        44.25740         0.25327
C         36.55461        43.60396         0.53713
C         37.72853        45.61322        -0.30054
C         36.48381        46.38910        -0.21168
C         37.74364        48.49180        -0.50218
C         36.51339        47.78139        -0.37408
C         37.70420        50.00407        -0.49853
C         36.45938        50.54424        -1.17053
C         37.73090        52.53102        -1.98500
C         36.49039        51.84852        -1.81020
C         37.76283        53.77812        -2.66254
C         36.54799        54.32234        -3.14805
C         40.26721        16.17931        -1.66013
C         39.10409        16.90630        -1.77720
C         40.27063        18.94382        -1.06887
C         39.07932        18.30637        -1.52097
C         40.26287        20.32251        -0.67372
C         39.11814        21.09844        -0.80939
C         40.26143        23.10809         0.07677
C         39.06936        22.43610        -0.30371
C         40.26234        24.52734         0.32875
C         39.04412        25.26250         0.36054
C         40.32238        27.36894         0.46278
C         39.03037        26.67753         0.39929
C         40.31933        28.85983         0.66144
C         39.03201        29.51394         0.90779
C         40.32490        31.59799         1.75270
C         39.03313        30.85466         1.51899
C         40.30675        33.07088         1.80874
C         39.06690        33.74769         1.81736
C         40.31350        35.90103         1.80236
C         39.06427        35.19208         1.81150
C         40.31785        37.33952         1.70295
C         39.09663        38.06212         1.61063
C         40.30113        40.16574         1.30554
C         39.07324        39.45395         1.45840
C         40.29021        41.55634         0.99938
C         39.03646        42.24020         0.83055
C         40.25826        44.36163         0.41132
C         39.02019        43.60710         0.45025
C         40.24467        45.73278         0.15608
C         39.05246        46.39177        -0.38015
C         40.22341        48.59742        -0.34460
C         38.98603        47.85714        -0.39265
C         40.21361        49.99138        -0.70203
C         38.98627        50.64196        -0.97076
C         40.20344        52.65356        -1.64508
C         38.97347        51.93311        -1.52734
C         40.21601        53.95651        -2.28264
C         39.02107        54.47668        -2.85733
C         40.28569        56.33209        -3.81542
C         39.08736        55.67138        -3.61484
C         42.71729        16.09096        -1.30102
C         41.48882        16.81693        -1.30626
C         42.73821        18.85959        -0.69655
C         41.49095        18.19821        -0.98842
C         42.75551        20.23741        -0.33578
C         41.45322        20.88476         0.06471
C         42.72522        23.05574         0.23432
C         41.50313        22.39315         0.06564
C         42.74140        24.47595         0.47380
C         41.51759        25.19631         0.52024
C         42.73165        27.24160         1.15814
C         41.55049        26.60339         0.76742
C         42.70296        28.63905         1.67684
C         41.50516        29.46644         1.34978
C         42.85283        31.59853         1.72389
C         41.58858        30.96651         1.20022
C         42.79472        33.02875         1.92814
C         41.56249        33.74964         1.88904
C         42.76762        35.93204         1.92185
C         41.55090        35.20184         1.90323
C         42.79826        37.34437         1.74897
C         41.54362        38.05274         1.66415
C         42.75812        40.18259         1.36526
C         41.53323        39.46836         1.46246
C         42.74050        41.52919         0.99862
C         41.51798        42.24166         0.82102
C         42.71775        44.38863         0.58791
C         41.51857        43.67598         0.62294
C         42.74321        45.84463         0.67502
C         41.40548        46.57113         0.44207
C         42.69465        48.64992        -0.13976
C         41.44320        47.96244        -0.04462
C         42.69846        50.02953        -0.50501
C         41.44700        50.69889        -0.79743
C         42.61792        52.88467        -1.04454
C         41.40448        52.06127        -1.18857
C         42.64585        54.24741        -1.72628
C         41.42805        54.67483        -2.44080
C         42.72757        56.53759        -3.40351
C         41.47440        55.84807        -3.22437
C         43.90931        16.73392        -1.08283
C         45.20359        18.83697        -0.66711
C         43.95725        18.13642        -0.81094
C         45.20561        20.23494        -0.40496
C         43.96779        20.93012        -0.19506
C         45.19900        23.04207         0.20998
C         43.98560        22.34757         0.11875
C         45.21632        24.47290         0.48101
C         43.97165        25.16992         0.63580
C         45.20384        27.24995         1.15708
C         43.97800        26.55094         1.01822
C         45.26291        28.58448         1.81101
C         43.96983        29.33511         2.19873
C         45.26586        31.56225         2.21091
C         44.00048        30.85241         1.91054
C         45.33015        33.03554         2.10387
C         44.02926        33.72143         2.28956
C         45.29542        35.94534         2.00056
C         44.02921        35.26666         2.23876
C         45.28305        37.32545         1.77052
C         44.03587        38.02974         1.70945
C         45.30358        40.19639         1.43083
C         44.02597        39.52770         1.86477
C         45.28711        41.55317         1.08291
C         44.01688        42.19846         0.69997
C         45.24916        44.45303         0.65801
C         44.00253        43.69260         0.46092
C         45.21515        45.87416         0.48644
C         43.99217        46.57659         0.38403
C         45.18558        48.66401        -0.16068
C         43.95132        47.96328         0.06217
C         45.17447        50.06232        -0.47605
C         43.93497        50.73290        -0.59103
C         45.20590        52.93010        -1.04757
C         43.91008        52.20524        -0.71973
C         45.15294        54.23187        -1.76055
C         43.94638        54.84301        -2.10845
C         43.89707        56.04607        -2.89817
C         47.63966        18.86241        -0.77928
C         46.45395        18.17154        -0.82057
C         47.66860        20.27097        -0.56863
C         46.44157        20.95035        -0.34389
C         47.66472        23.05449        -0.03480
C         46.44864        22.35314        -0.03848
C         47.74081        24.45978         0.50397
C         46.41598        25.18986         0.54656
C         47.64726        27.34714         0.74574
C         46.42673        26.60279         0.81525
C         47.73322        28.73311         1.08762
C         46.58035        29.32948         1.80805
C         47.77786        31.60916         1.76597
C         46.58661        30.81205         2.09848
C         47.78414        32.99801         1.84708
C         46.52952        33.71553         2.05317
C         47.80830        35.92058         1.82939
C         46.57554        35.21348         2.35066
C         47.78742        37.33489         1.68491
C         46.54300        38.05254         1.68265
C         47.77059        40.17198         1.42901
C         46.53382        39.46136         1.52687
C         47.72693        41.64506         1.41215
C         46.46993        42.34249         1.07080
C         47.71715        44.55213         1.12726
C         46.44459        43.75166         0.90349
C         47.67660        45.92781         0.50733
C         46.45571        46.59468         0.32722
C         47.67176        48.64356        -0.29457
C         46.43048        47.97691        -0.03354
C         47.65529        50.03194        -0.69624
C         46.43127        50.74746        -0.73983
C         47.63952        52.76748        -1.49122
C         46.44368        52.12336        -1.12832
C         47.59354        54.13044        -1.95608
C         46.41717        54.80056        -2.13118
C         50.13787        20.37765        -0.90074
C         48.89856        21.01464        -0.61994
C         50.10337        23.18884        -0.56413
C         48.88339        22.42037        -0.39580
C         50.10202        24.60014        -0.44074
C         48.77999        25.29868        -0.23552
C         50.15941        27.42875         0.19968
C         48.90592        26.64225         0.44792
C         50.00986        28.92886         0.04435
C         48.89169        29.47769         0.90248
C         50.29080        31.58978         1.34630
C         49.00775        30.83717         1.48549
C         50.23997        33.07662         1.39774
C         49.02782        33.75069         1.64306
C         50.24466        35.91984         1.47303
C         49.01377        35.19725         1.64655
C         50.25194        37.35509         1.45941
C         49.02142        38.05965         1.50547
C         50.24626        40.23385         1.23822
C         49.00074        39.49788         1.40748
C         50.26224        41.63838         1.08393
C         49.01540        42.39542         1.23910
C         50.21781        44.53337         0.68898
C         48.92502        43.75536         0.58171
C         50.16008        45.91582         0.52816
C         48.90412        46.59928         0.29662
C         50.17313        48.52437        -0.69819
C         48.89039        47.94471        -0.15522
C         50.14331        50.02240        -0.85654
C         48.89834        50.69988        -0.98150
C         50.12617        52.73308        -1.59399
C         48.88918        52.07306        -1.37064
C         51.29920        21.10349        -1.04156
C         52.48990        23.28657        -1.23306
C         51.30665        22.51818        -0.92651
C         52.46884        24.70739        -1.14152
C         51.27034        25.36913        -0.69391
C         52.46109        27.55680        -0.73181
C         51.29136        26.78440        -0.49447
C         52.51523        28.94315        -0.35929
C         51.34192        29.63447         0.15565
C         52.72655        31.59341         0.71909
C         51.42864        30.90873         0.66046
C         52.74907        33.07095         1.07275
C         51.45976        33.80291         1.25540
C         52.78454        35.90910         1.53207
C         51.46710        35.19652         1.33732
C         52.72293        37.39223         1.26696
C         51.50046        38.08195         1.32976
C         52.68415        40.26624         1.05921
C         51.48269        39.52720         1.20737
C         52.69438        41.66203         0.89169
C         51.46274        42.38176         0.89206
C         52.69714        44.56164         0.74076
C         51.44956        43.81849         0.79385
C         52.66548        45.95702         0.66453
C         51.38739        46.74916         0.77525
C         52.63214        48.71154        -0.22442
C         51.42815        48.01636        -0.04121
C         52.62336        50.04305        -0.77755
C         51.35777        50.71033        -1.03154
C         51.32144        52.08395        -1.40041
C         54.79179        23.38574        -2.00649
C         53.67807        22.64726        -1.65668
C         54.78159        24.79239        -1.95145
C         53.62539        25.47257        -1.48631
C         54.82310        27.64809        -1.42125
C         53.63535        26.90760        -1.25960
C         54.91309        29.00123        -0.98966
C         53.75128        29.64971        -0.45471
C         55.02744        31.75832        -0.22979
C         53.85649        31.00288        -0.01544
C         55.04223        33.16484         0.07790
C         53.94621        33.82983         0.65444
C         55.15185        35.96808         0.69634
C         53.96363        35.23743         0.85717
C         55.15250        37.39643         0.87463
C         53.95127        38.07913         1.08441
C         55.08547        40.17770         0.34936
C         54.01110        39.57655         1.24602
C         55.12057        41.68164         0.46563
C         53.95218        42.38162         0.67204
C         55.17043        44.52234         0.46422
C         53.95035        43.83757         0.64347
C         55.23007        45.98525         0.60817
C         53.90015        46.74922         0.67790
C         55.10662        48.80028        -0.08602
C         53.89331        48.12750         0.15895
C         55.05361        50.11632        -0.61495
C         53.84679        50.71681        -0.93651
C         57.28350        24.87083        -2.52539
C         55.97953        25.54439        -2.38034
C         57.31201        27.68467        -1.89530
C         56.00090        27.04048        -2.06760
C         57.37067        29.01818        -1.41481
C         56.15747        29.70594        -1.04491
C         57.47294        31.75325        -0.73757
C         56.21448        31.08641        -0.71237
C         57.52306        33.21677        -0.63908
C         56.22377        33.96387        -0.28195
C         57.59901        35.96323         0.28399
C         56.35850        35.32445         0.25522
C         57.69667        37.34337         0.91319
C         56.40962        38.12257         0.75368
C         57.67210        40.24330         0.67254
C         56.40932        39.47863         0.61122
C         57.64597        41.72400         0.41555
C         56.35563        42.35825        -0.06112
C         57.59936        44.52419        -0.03982
C         56.38156        43.84436         0.15717
C         57.61355        45.96794        -0.09627
C         56.42481        46.70157         0.13621
C         57.61611        48.77566        -0.28624
C         56.39544        48.10553        -0.01815
C         58.44308        25.56968        -2.52401
C         59.74379        27.62919        -2.06226
C         58.49277        26.97961        -2.20144
C         59.81133        28.93690        -1.62624
C         58.63643        29.65878        -1.29417
C         59.91759        31.74568        -0.73417
C         58.68295        31.05022        -0.91192
C         59.96732        33.08842        -0.41847
C         58.79629        33.88720        -0.36626
C         60.05281        35.99055         0.01594
C         58.81045        35.26935        -0.03287
C         60.10406        37.34815         0.20815
C         58.93311        38.11425         0.48395
C         60.12040        40.29041         0.25974
C         58.94656        39.51334         0.49143
C         60.09891        41.66031         0.06434
C         58.89981        42.41623         0.03594
C         60.02245        44.55128        -0.56353
C         58.84342        43.80577        -0.22249
C         60.01257        45.91590        -0.65626
C         58.81330        46.66199        -0.40812
C         58.79689        48.07446        -0.45937
O         42.41385        54.10639        -0.27843
O         44.06038        42.74175        -0.67085
O         38.46430        45.75655        -1.56209
O         44.65459        52.90804         0.31986
O         32.17669        43.38494        -1.02110
O         46.18888        28.53020         2.96001
O         28.43015        33.14857         2.92362
O         54.72188        46.51505         1.87230
O         49.90923        26.82341         1.50269
O         37.52458        21.36422        -2.64559
O         39.69977        30.90454         2.86130
O         57.65698        41.22622         1.78445
O         55.72359        26.54305        -3.42340
O         28.43720        26.55714        -4.18643
O         45.99741        31.09654         3.40166
O         53.04917        32.06675         2.09155
O         40.52910        28.31973        -0.67275
O         56.67720        33.85046        -1.66769
O         25.78164        28.98661        -0.03519
O         48.43876        42.26147         2.57834
O         33.21602        50.64187         0.06128
O         41.96490        46.39762         1.78573
O         24.15143        38.88909         3.70348
O         34.53875        37.49449         3.47789
O         49.96749        30.92831         2.62476
O         41.62962        28.88561         2.66278
O         37.58625        23.49715         1.29178
O         31.81746        24.78420         0.53802
O         29.83542        30.75728         2.13458
O         43.97853        34.51205         3.52281
O         35.12222        31.29253         3.01850
H         35.94653        31.55514         3.48186
O         37.13254        38.14676         3.69484
H         36.32703        38.13768         4.25877
O         53.05427        35.80248         2.97866
H         53.06717        34.84787         3.20896
O         43.99267        39.75763         3.33106
H         43.24828        39.23198         3.69554
O         54.73162        39.88834        -1.03389
H         55.33706        40.42858        -1.59654
O         57.86982        37.10191         2.35028
H         57.83827        37.97249         2.80188
O         29.10069        44.35419         2.35211
H         28.31080        44.02670         2.83381
O         41.24444        20.49931         1.47790
H         41.96794        20.90415         2.00221
O         34.10352        40.01691         3.69042
H         34.25985        39.19924         4.22017
O         37.58466        50.40459         0.90640
H         36.77175        49.95975         1.26370
O         48.68648        43.48067        -0.82566
H         48.71999        44.33197        -1.31114
O         46.67376        35.28972         3.81330
H         45.82583        34.92827         4.16924
O         33.09644        37.71456         0.12957
H         32.45189        37.17479        -0.37530
O         47.87735        44.80522         2.54178
H         47.95700        43.92697         2.99205
O         30.62075        37.31653         3.89225
H         30.33948        38.20667         4.22573
O         32.88649        33.58553        -0.53642
H         33.73339        33.27886        -0.92547
O         26.82174        38.21441         4.20939
H         25.95530        38.54533         4.54551
O         43.87148        29.27584         3.63283
H         44.75728        29.52137         3.99364
O         51.29171        47.19019         2.18517
H         51.28547        46.38886         2.75124
O         50.23468        48.00389        -2.09854
H         49.52198        48.45389        -2.60166
O         48.23409        25.56429        -1.55868
H         48.87486        26.11833        -2.05268
O         35.18798        48.99158         1.22012
H         34.41855        49.61120         1.28656
O         49.58694        29.07971        -1.36235
H         49.62300        30.03194        -1.59269
O         37.32760        37.48994         0.11454
H         38.01021        37.08762        -0.46211
O         29.16241        39.74840         3.92966
H         28.34787        39.30092         4.28384
O         54.42345        39.82857         2.61944
H         53.79458        39.36975         3.21521
O         41.58679        31.21496        -0.23755
H         41.63700        32.18387        -0.37843
O         27.26084        30.87196         2.32328
H         27.94795        30.96908         3.02268
O         48.20921        24.34591         1.87613
H         47.50422        23.92651         2.41142
O         56.34403        42.13116        -1.52987
H         55.68072        42.74307        -1.91541
H         22.79382        28.94050        -4.06126
H         22.50591        30.74988        -2.43613
H         22.30090        32.05175        -1.08280
H         22.20182        34.08829         0.22747
H         22.07750        35.33954         1.73884
H         22.04774        37.42944         3.09795
H         22.10865        40.37234         3.20939
H         22.02122        42.33464         1.67885
H         21.97766        43.57810         0.17314
H         21.99272        45.70104        -1.07329
H         26.40623        26.30892        -5.60095
H         24.17387        27.43398        -5.27373
H         25.32919        48.87056        -2.32056
H         23.22708        47.64938        -1.98353
H         28.40069        24.00201        -4.69404
H         26.94263        49.88062        -2.38891
H         29.76479        22.29359        -3.51673
H         29.01274        51.14236        -2.52115
H         32.86383        19.67337        -2.34172
H         30.82144        20.99910        -2.48021
H         32.74365        53.30531        -2.91009
H         30.66391        52.10746        -2.65255
H         34.55397        18.71521        -2.47380
H         34.42600        54.14740        -3.32810
H         36.62234        17.47146        -2.42850
H         36.54231        55.28547        -3.67372
H         40.26998        15.10128        -1.87621
H         38.18462        16.39178        -2.08638
H         40.31733        57.24933        -4.42035
H         38.18127        56.08592        -4.07478
H         42.69997        15.01294        -1.51681
H         42.73255        57.46328        -3.99674
H         44.83923        16.15186        -1.12404
H         44.82730        56.59019        -3.10877
H         48.57531        18.30684        -0.92271
H         46.48304        17.08860        -0.99707
H         48.52498        54.63786        -2.23595
H         46.45209        55.81541        -2.54833
H         50.18325        19.28868        -1.02933
H         50.14628        53.78935        -1.88939
H         52.22435        20.56168        -1.27539
H         52.25273        52.64516        -1.54674
H         55.68501        22.85371        -2.35753
H         53.73103        21.55449        -1.73348
H         55.97948        50.67270        -0.80775
H         53.87168        51.73490        -1.34567
H         57.31778        23.77996        -2.65091
H         57.64241        49.87105        -0.35503
H         59.39890        25.04546        -2.67179
H         60.66415        27.07909        -2.30474
H         60.79427        29.41894        -1.54484
H         60.86347        31.19253        -0.80087
H         60.94861        33.54182        -0.22523
H         60.98809        35.46198        -0.21071
H         61.07305        37.85559         0.10167
H         61.09421        39.78367         0.21623
H         61.05762        42.16534        -0.11828
H         60.96133        44.01213        -0.74873
H         60.93224        46.46122        -0.91271
H         59.73175        48.61555        -0.66424
