         334
 CSIRO Nanostructure Databank - Neutral Graphene Oxide Data Set
C         30.80955        56.69885        -1.96706
C         30.61243        58.17071        -1.78936
C         29.71947        58.72998        -2.85496
C         30.91100        60.84987        -2.81853
C         29.87076        60.02372        -3.29500
C         33.20668        52.57347        -0.75376
C         33.15942        53.98358        -0.89495
C         32.04537        54.63764        -1.46791
C         33.11035        56.83128        -1.07553
C         31.97113        56.05319        -1.52922
C         33.07115        58.26836        -1.20403
C         31.92289        58.91018        -1.69815
C         33.13161        61.04774        -1.73997
C         31.97732        60.29134        -2.05837
C         35.71222        48.47908         0.20916
C         35.47941        49.84163         0.47719
C         34.37345        50.51313        -0.06878
C         35.37019        52.73962         0.38670
C         34.28103        51.93945        -0.10239
C         35.41130        54.10407         0.10533
C         34.29717        54.75949        -0.48650
C         35.42223        56.97626        -0.21555
C         34.27018        56.19025        -0.61186
C         35.39446        58.40169        -0.35732
C         34.23597        59.03686        -0.88927
C         35.39775        61.20802        -0.74170
C         34.24094        60.44884        -1.12069
C         38.90669        44.44961         0.53063
C         38.29932        45.80212         0.73609
C         37.15384        46.43042         0.24439
C         37.91676        48.53467         1.28416
C         36.90695        47.79613         0.59800
C         37.75093        49.95770         1.62775
C         36.45083        50.61743         1.29744
C         37.70854        52.83281         1.35839
C         36.35475        52.14150         1.37658
C         37.62945        54.34297         1.35181
C         36.71811        54.84822         0.22048
C         37.73429        57.11230         0.59337
C         36.58306        56.35407         0.27134
C         37.73890        58.52474         0.40578
C         36.54550        59.17560        -0.02691
C         37.65902        61.45073         0.29854
C         36.50896        60.60281        -0.19923
C         40.12486        40.19577         0.45488
C         40.16465        41.52584         0.99563
C         39.02021        42.11365         1.49176
C         40.17534        44.38506         1.41692
C         38.94563        43.55358         1.76316
C         40.28900        45.73549         2.12992
C         39.14453        46.52722         1.59263
C         40.23154        48.61689         2.41905
C         39.06278        47.90012         1.76507
C         40.23237        50.08215         1.99711
C         38.99643        50.74705         1.74851
C         40.17811        52.92290         1.45324
C         38.92362        52.17021         1.51380
C         40.17787        54.29855         1.32925
C         38.95860        55.04821         1.22076
C         40.20970        57.14219         0.81640
C         38.95695        56.41674         0.96199
C         40.20110        58.59165         0.62219
C         38.96936        59.27564         0.50941
C         40.15680        61.41664         0.40636
C         38.97403        60.70844         0.38207
C         42.38231        36.78359        -2.20576
C         42.43177        37.86441        -1.30128
C         41.25809        38.40004        -0.74860
C         42.59151        40.03087         0.66404
C         41.28626        39.54180         0.08230
C         42.64782        41.54760         0.78847
C         41.43823        42.25367         0.95768
C         42.67613        44.34730         1.19822
C         41.44916        43.66956         1.13283
C         42.73701        45.86166         1.22226
C         41.52430        46.52850         1.82467
C         42.77311        48.61352         1.91789
C         41.52188        47.88202         2.02112
C         42.73416        50.07717         2.03230
C         41.44087        50.76243         1.86387
C         42.73896        52.89703         1.29481
C         41.43635        52.11973         1.21974
C         42.68548        54.27014         1.07275
C         41.47022        55.07555         1.44564
C         42.61333        57.16083         0.27638
C         41.39791        56.45726         0.83018
C         42.66930        58.62205         0.64307
C         41.42245        59.31570         0.65510
C         42.62994        61.45287         0.62135
C         41.43061        60.76013         0.56896
C         44.64350        34.73808        -4.36575
C         43.48793        35.20817        -3.74320
C         44.82331        36.89431        -2.52662
C         43.54409        36.28557        -2.82398
C         44.91334        37.94792        -1.61326
C         43.72340        38.46141        -0.96101
C         45.12707        39.99220         0.45844
C         43.80525        39.49189        -0.05090
C         45.14976        41.48763         0.72846
C         43.89886        42.20596         0.89936
C         45.15104        44.31272         1.30332
C         43.90933        43.63026         1.12624
C         45.22346        45.71552         1.52470
C         43.96247        46.43111         1.93185
C         45.21893        48.64619         1.53923
C         43.98530        47.94900         1.76982
C         45.27253        50.04672         1.40390
C         44.04543        50.81517         1.70011
C         45.26708        52.95897         1.19724
C         43.96794        52.20162         1.26345
C         45.11903        54.19450         0.32946
C         43.77827        54.93184         0.28141
C         45.13074        57.14724         0.29558
C         43.87936        56.41238         0.69932
C         45.11936        58.56870         0.38620
C         43.88725        59.28520         0.61593
C         45.12380        61.43301         0.24351
C         43.94118        60.76947         0.90284
C         45.88628        35.31787        -4.10375
C         47.25333        36.99663        -2.92926
C         46.00762        36.39381        -3.19214
C         47.38142        38.05654        -2.00999
C         46.19850        38.54296        -1.29898
C         47.65590        40.03066         0.11490
C         46.30708        39.54424        -0.35960
C         47.64127        41.47962         0.58590
C         46.37695        42.11450         0.90127
C         47.67681        44.24239         1.50088
C         46.36206        43.46437         1.59837
C         47.65022        45.68195         1.01423
C         46.42442        46.42610         1.47603
C         47.65476        48.54447         1.31152
C         46.45317        47.87192         1.44664
C         47.72178        49.92897         0.72490
C         46.48090        50.75192         1.04435
C         47.73748        52.85502         0.53325
C         46.52027        52.13730         0.87347
C         47.66304        54.23465         0.26493
C         46.36860        54.96031         0.13939
C         47.54753        57.16638         0.19767
C         46.33103        56.44633         0.13738
C         47.55439        58.59123         0.16409
C         46.33436        59.29101         0.21218
C         47.52947        61.37233        -0.37092
C         46.31238        60.73898         0.03320
C         48.61834        38.68571        -1.79695
C         49.94824        40.45437        -0.78018
C         48.76778        39.74097        -0.86827
C         50.07326        41.60869         0.06826
C         48.86509        42.12105         0.72186
C         50.17584        44.29268         0.97291
C         48.95353        43.51227         1.20842
C         50.16856        45.69530         1.18489
C         48.93887        46.38235         1.32926
C         50.17265        48.58983         1.74505
C         48.90141        47.81726         1.58114
C         50.17370        50.04753         1.40579
C         49.02454        50.67243         0.98124
C         50.29940        52.83165         0.91329
C         49.07974        52.06897         0.38252
C         50.57378        54.06723         0.45777
C         48.74843        55.09326        -0.10759
C         50.01098        57.22372         0.61829
C         48.78266        56.45494         0.13682
C         50.02155        58.58997        -0.00961
C         48.80152        59.27914        -0.07337
C         49.98509        61.30268        -0.77609
C         48.75996        60.67808        -0.42597
C         51.27466        42.28328         0.12443
C         52.62077        44.37534         0.53080
C         51.46294        43.52335         0.94989
C         52.61604        45.75360         0.75881
C         51.41547        46.41140         1.19359
C         52.71981        48.61422         1.33643
C         51.46155        47.82822         1.59385
C         52.67849        50.10560         1.32397
C         51.46173        50.74670         1.49681
C         52.70160        52.96304         1.68568
C         51.34695        52.22064         1.82946
C         52.74038        54.46414         1.43708
C         51.36868        55.09281         1.24678
C         52.50227        57.12156         0.24527
C         51.33551        56.47828         0.60739
C         52.47438        58.50086        -0.24066
C         51.24358        59.21775        -0.33353
C         52.43533        61.22639        -1.08784
C         51.20748        60.59928        -0.75450
C         53.78002        46.54383         0.45406
C         54.91839        48.70673         0.23376
C         53.82865        47.92128         0.65097
C         55.04841        50.09004         0.51156
C         53.94129        50.81733         1.14384
C         55.09455        53.03862         1.22683
C         53.93513        52.22263         1.33230
C         55.13153        54.39133         0.77283
C         53.90247        55.12411         0.80753
C         54.99584        57.12007        -0.07291
C         53.79822        56.43845         0.32689
C         54.92087        58.44141        -0.55540
C         53.68293        59.13836        -0.61751
C         54.86705        61.22044        -1.30341
C         53.65031        60.53289        -1.02995
C         56.20727        50.69056        -0.06346
C         57.50577        52.83797        -0.44515
C         56.70881        51.95726         0.27594
C         57.49867        54.26172        -0.19807
C         56.31754        54.99561         0.23227
C         57.45587        57.10873        -0.34474
C         56.27404        56.40813        -0.04995
C         57.39695        58.62678        -0.33874
C         56.17093        59.07735        -1.13064
C         57.30193        61.27592        -1.52113
C         56.10746        60.58288        -1.26548
C         58.61780        54.97967        -0.63276
C         59.85434        57.05755        -0.99449
C         58.67408        56.40223        -0.60970
C         59.94994        58.51098        -1.07597
C         58.67364        59.31794        -0.81108
C         59.72259        61.23678        -1.97996
C         58.57038        60.64425        -1.45581
C         60.99688        59.15525        -1.87007
C         60.91044        60.48649        -2.19089
O         56.30219        52.44107         1.54545
O         45.69233        54.20871        -1.00756
O         49.90268        54.53315        -0.67641
O         49.44213        48.23515         2.94971
O         36.67820        50.09720         2.65989
O         48.52134        43.89371         2.61396
O         59.69705        59.23629         0.21256
O         43.57614        50.63209         3.10275
O         52.43243        48.08508         2.68275
O         52.95263        53.92491         2.77837
O         37.42881        54.54615        -1.02361
H         36.90405        54.91289        -1.76607
O         40.09724        48.53872         3.85324
H         40.15649        47.58102         4.08893
O         47.68568        49.67920        -0.72962
H         48.08359        50.47179        -1.17110
O         46.18097        43.13471         3.01345
H         47.08568        43.08829         3.40968
O         56.34097        58.54633        -2.47966
H         55.57110        58.83334        -3.01400
O         47.97768        39.23791         1.30644
H         47.21720        39.35259         1.92674
O         57.18809        59.04162         1.03251
H         58.07134        59.03569         1.46587
O         49.69139        57.50993         2.02044
H         49.89554        56.69767         2.54780
O         37.06300        54.77234         2.61890
H         36.41804        54.07205         2.90256
O         38.13204        43.94287         2.85437
H         37.90467        43.14541         3.37297
O         43.78386        46.16390         3.34519
H         44.57490        46.48602         3.82496
O         51.72725        43.09599         2.34732
H         51.72345        43.90265         2.90651
O         43.30221        54.80396        -1.08922
H         44.09848        54.60770        -1.64537
O         35.73985        52.44718         2.67986
H         36.02527        51.71313         3.28054
O         42.82626        46.28651        -0.17020
H         42.07587        45.88917        -0.65904
O         29.91482        58.37238        -0.48300
H         30.54471        58.11155         0.22248
O         50.72766        55.16023         2.54339
H         51.18666        54.50097         3.12703
O         41.58506        55.32323         2.89982
H         40.71876        55.66718         3.20715
O         49.25977        51.87935        -1.05780
H         49.37118        52.78061        -1.44466
O         45.48810        53.49986         2.53984
H         45.26643        52.80241         3.19376
O         44.16220        60.89181         2.37407
H         45.06499        60.55156         2.55502
O         37.79193        62.64446        -0.47909
H         38.05817        62.39025        -1.38614
O         43.93259        56.38623         2.14609
H         43.82203        57.30100         2.48063
O         50.90871        52.33314         3.20103
H         51.53610        51.83650         3.76725
O         41.39671        51.79572        -0.23497
H         40.50308        51.43684        -0.42667
O         42.60956        39.51303         2.03493
H         43.51234        39.69000         2.39536
O         45.30266        39.36752         1.81055
H         45.20244        38.39803         1.68508
O         40.18334        45.61176         3.56985
H         39.34123        45.12509         3.74043
O         47.54397        45.55135        -0.45441
H         47.41533        46.45290        -0.82127
O         42.47226        57.21520        -1.16976
H         42.48863        56.28223        -1.50099
H         29.96052        56.09270        -2.31868
H         28.90062        58.10451        -3.23983
H         30.96309        61.90320        -3.12848
H         29.15614        60.43832        -4.02168
H         32.37565        51.96585        -1.14109
H         31.18461        54.04081        -1.80462
H         33.16425        62.11761        -1.99575
H         34.96072        47.92947        -0.37835
H         33.61568        49.93074        -0.61471
H         35.39134        62.29934        -0.88047
H         38.87648        43.96904        -0.46086
H         36.43458        45.89846        -0.39492
H         37.39407        61.78701         1.34228
H         39.14477        39.76203         0.20291
H         38.10793        41.51062         1.61916
H         40.12748        62.51289         0.31551
H         41.40805        36.33125        -2.44443
H         40.28421        37.98889        -1.05630
H         42.62517        62.55138         0.54538
H         44.57494        33.90189        -5.07591
H         42.51571        34.74488        -3.96468
H         45.09356        62.52151         0.08206
H         46.78717        34.93933        -4.60764
H         48.15025        36.62949        -3.45036
H         47.51674        62.45161        -0.58759
H         49.48401        38.38790        -2.40855
H         50.80235        40.17811        -1.41762
H         49.98714        62.36642        -1.05820
H         52.12758        41.89828        -0.45601
H         53.54709        43.88691         0.19297
H         52.43579        62.28588        -1.38469
H         54.64687        46.03844         0.00311
H         55.74436        48.20939        -0.29629
H         54.82500        62.30278        -1.50077
H         56.72604        50.12018        -0.84858
H         58.11086        52.46877        -1.28613
H         57.25414        62.33774        -1.80973
H         59.50205        54.42523        -0.97953
H         60.70822        56.45552        -1.33956
H         59.66061        62.25703        -2.38547
H         61.85184        58.55175        -2.20759
H         61.73907        60.96586        -2.73197
