         430
 CSIRO Nanostructure Databank - Neutral Graphene Oxide Data Set
C         27.90517        27.51124        -1.03263
C         27.88476        28.92588        -0.73532
C         26.67660        29.59920        -0.48980
C         27.87735        31.68731        -0.06717
C         26.66867        30.95319        -0.18289
C         27.88547        33.09727         0.23815
C         26.68374        33.83584         0.34212
C         27.92042        35.89877         0.77403
C         26.70075        35.19149         0.59311
C         27.90995        37.33971         0.90308
C         26.74156        38.07693         1.00321
C         27.92645        40.22557         1.16254
C         26.73826        39.48363         1.08290
C         27.92904        41.66291         1.35578
C         26.73747        42.40719         1.37845
C         27.92419        44.53519         1.42543
C         26.73978        43.81787         1.37770
C         27.96144        45.95557         1.26324
C         30.34574        27.61368        -1.55019
C         29.05145        26.87075        -1.35207
C         30.34721        28.98129        -0.91031
C         29.12147        29.63985        -0.64908
C         30.35942        31.71133        -0.08477
C         29.11506        31.01895        -0.27297
C         30.35074        33.05571         0.35858
C         29.12953        33.77143         0.45996
C         30.40881        35.83931         1.01681
C         29.14078        35.17443         0.75494
C         30.35256        37.28065         1.47791
C         29.23043        38.05535         0.75720
C         30.36782        40.21197         1.34199
C         29.17984        39.52481         1.13949
C         30.39308        41.64834         1.44958
C         29.18940        42.34921         1.46040
C         30.44079        44.53184         1.28767
C         29.20368        43.82546         1.78001
C         30.41319        45.90612         1.05195
C         29.15024        46.61601         1.11793
C         32.82270        24.73769        -1.08835
C         31.61401        25.43721        -1.19205
C         32.81715        27.54989        -1.07125
C         31.59253        26.82765        -1.21247
C         32.80647        28.96545        -0.96771
C         31.57999        29.66979        -0.75868
C         32.85274        31.74832        -0.20290
C         31.59368        31.03688        -0.33522
C         32.87498        33.08929         0.26419
C         31.62290        33.65967         0.88976
C         32.90117        35.82270         1.39233
C         31.59771        35.16770         0.97199
C         32.86442        37.33592         1.28851
C         31.67099        38.00006         1.34632
C         32.92068        40.22453         1.59799
C         31.62292        39.45992         1.56236
C         32.89454        41.67775         1.33600
C         31.67000        42.37205         1.38256
C         32.87549        44.47041         0.89723
C         31.66122        43.78797         1.19719
C         32.86464        45.87884         0.64477
C         31.63639        46.60440         0.71162
C         32.84949        48.64923         0.17805
C         31.65900        47.99330         0.46836
C         35.33764        23.31184        -1.40992
C         35.31764        24.68391        -1.06954
C         34.05071        25.41293        -1.02123
C         35.28992        27.55103        -0.77269
C         34.05670        26.83362        -0.96824
C         35.31957        28.93475        -0.78752
C         34.08284        29.72642        -1.15298
C         35.29237        31.78194        -0.41108
C         34.06706        31.09800        -0.53174
C         35.28154        33.16443        -0.11383
C         34.08449        33.82484         0.27712
C         35.30312        35.93876         0.72352
C         34.13004        35.21245         0.73525
C         35.34975        37.34961         1.09059
C         34.12216        38.06475         1.25750
C         35.37477        40.17778         1.19718
C         34.15530        39.46509         1.34239
C         35.37082        41.60287         1.06505
C         34.11878        42.34440         1.07026
C         35.31372        44.43962         0.50541
C         34.10502        43.74590         0.83393
C         35.32168        45.81557         0.28398
C         34.08432        46.56110         0.33851
C         35.33670        48.73641        -0.10690
C         34.06319        47.95331         0.09856
C         35.25731        49.80489        -1.16676
C         37.76158        23.25209        -1.20781
C         36.52569        22.60997        -1.45426
C         37.76469        24.65513        -0.92980
C         36.53945        25.35062        -0.83938
C         37.80781        27.52401        -0.59827
C         36.51873        26.77744        -0.34166
C         37.80593        28.93787        -0.61616
C         36.55837        29.66264        -0.64025
C         37.80082        31.78092        -0.49386
C         36.55528        31.06648        -0.56502
C         37.80814        33.18888        -0.34624
C         36.53263        33.91631        -0.27953
C         37.85444        35.96287         0.48307
C         36.54610        35.37803         0.13908
C         37.84213        37.24987         1.30016
C         36.57012        38.03755         1.13373
C         37.84198        40.18480         1.06029
C         36.60680        39.46107         1.14461
C         37.84380        41.58495         0.88745
C         36.58797        42.26298         0.83102
C         37.86285        44.36596         0.15093
C         36.54820        43.64833         0.34771
C         37.81303        45.82570         0.04184
C         36.57212        46.51102         0.00400
C         37.75880        48.52702        -0.71344
C         36.56008        47.88364        -0.30627
C         37.69720        49.79580        -1.40158
C         36.39650        50.32996        -1.69739
C         40.22567        20.37575        -1.05247
C         39.04747        21.10410        -1.28285
C         40.24917        23.25073        -1.09269
C         38.99384        22.50229        -1.21994
C         40.23058        24.68524        -0.75501
C         39.02263        25.36986        -0.73421
C         40.27017        27.51859        -0.64433
C         39.02369        26.81329        -0.63119
C         40.27801        28.94222        -0.64190
C         39.04375        29.65290        -0.62991
C         40.27480        31.80670        -0.59720
C         39.04213        31.08016        -0.57060
C         40.25567        33.21367        -0.47168
C         39.02773        33.90095        -0.27069
C         40.32618        35.85789         0.60604
C         39.01700        35.28389         0.19988
C         40.33518        37.32702         1.06147
C         39.08485        38.07492         1.08322
C         40.34272        40.20978         1.03395
C         39.09802        39.46396         1.04707
C         40.35780        41.63072         0.99888
C         39.10232        42.32244         0.80850
C         40.34331        44.45544         0.51535
C         39.12062        43.69678         0.54071
C         40.29702        45.81515         0.09892
C         39.03741        46.51625        -0.10915
C         40.24800        48.66779        -0.65288
C         38.99565        47.86269        -0.52311
C         40.15348        49.76607        -1.67880
C         38.90023        50.36481        -1.95328
C         40.02856        52.05967        -3.30982
C         38.87311        51.52399        -2.79341
C         42.62407        20.32311        -0.40714
C         41.43972        21.00779        -0.73647
C         42.62120        23.17452        -0.08490
C         41.51749        22.47723        -0.84719
C         42.69346        24.65201        -0.39262
C         41.49297        25.36671        -0.58250
C         42.74338        27.49888        -0.53938
C         41.50587        26.79966        -0.60176
C         42.75517        28.92892        -0.57933
C         41.52330        29.66032        -0.64421
C         42.77749        31.78259        -0.71290
C         41.52748        31.08046        -0.67299
C         42.79780        33.22407        -0.63086
C         41.51057        34.01524        -0.73149
C         42.77651        35.92546         0.28909
C         41.57445        35.29074         0.07457
C         42.81342        37.26576         0.92295
C         41.58105        38.06897         0.97135
C         42.82110        40.18926         1.04988
C         41.57551        39.46250         1.01289
C         42.80776        41.60902         1.27960
C         41.58889        42.39024         1.11069
C         42.79152        44.64702         0.81669
C         41.59652        43.81258         0.87687
C         42.76342        45.90934         0.09432
C         41.50822        46.52021        -0.20836
C         42.66688        48.43664        -1.22683
C         41.48510        47.82418        -0.76348
C         42.62188        49.68889        -1.94219
C         41.34897        50.30122        -2.21667
C         42.50346        52.02383        -3.52979
C         41.29427        51.46893        -3.03473
C         43.83917        21.01555        -0.24415
C         45.15532        23.14009        -0.17434
C         43.91525        22.40940        -0.21053
C         45.14029        24.57661        -0.17940
C         43.94635        25.32643        -0.30584
C         45.19380        27.49262        -0.32667
C         43.97618        26.77962        -0.40944
C         45.23774        28.90394        -0.41322
C         43.99578        29.62849        -0.55570
C         45.27273        31.73233        -0.85839
C         43.98882        31.04291        -0.67627
C         45.26542        33.25550        -0.79599
C         43.99200        33.92755        -0.51493
C         45.25751        36.00491        -0.05022
C         44.03291        35.31526        -0.11044
C         45.31667        37.40034         0.30372
C         44.10868        38.03143         0.86712
C         45.27255        40.18852         0.92591
C         44.03904        39.49725         0.92593
C         45.28344        41.51801         1.43126
C         44.03883        42.14696         1.69898
C         45.27452        44.90901         1.04961
C         44.03361        44.32628         1.42116
C         45.24484        46.28026         0.45680
C         43.94802        46.61958        -0.21045
C         45.14689        48.45798        -1.37376
C         43.92200        47.81890        -0.95577
C         45.09598        49.65662        -2.12529
C         43.81244        50.27258        -2.42969
C         43.72076        51.45367        -3.22366
C         47.60162        23.16472         0.10907
C         46.39023        22.46781        -0.12867
C         47.66701        24.53400         0.07637
C         46.45296        25.28915        -0.42680
C         47.75945        27.42722        -0.27526
C         46.43624        26.73109         0.08847
C         47.72704        28.93434        -0.10305
C         46.49617        29.61812        -0.32360
C         47.74331        31.74252        -0.48734
C         46.53891        31.03350        -0.53573
C         47.80007        33.21254        -0.86411
C         46.52698        33.94750        -0.53904
C         47.75863        36.03776        -0.22292
C         46.52294        35.31781        -0.29140
C         47.74354        37.53732        -0.35162
C         46.48142        38.14759         0.20469
C         47.71115        40.25624         0.65288
C         46.49462        39.53116         0.59548
C         47.73065        41.62428         1.08086
C         46.54598        42.15026         1.59752
C         47.72808        44.68264         0.61530
C         46.53555        44.34882         1.32208
C         47.69015        45.94949        -0.12964
C         46.47457        46.65587        -0.30802
C         47.62170        48.43871        -1.55839
C         46.41650        47.84087        -1.08697
C         47.53774        49.64352        -2.29657
C         46.31746        50.23030        -2.57201
C         50.19441        24.59924         0.38756
C         48.85812        25.23488         0.70923
C         50.19484        27.47341         0.42227
C         48.89344        26.75688         0.48890
C         50.21196        28.91973         0.08208
C         48.94066        29.63368        -0.02079
C         50.19578        31.77066        -0.12678
C         48.97144        31.06422        -0.19599
C         50.23172        33.20468        -0.18982
C         49.01803        33.92677        -0.33994
C         50.22714        36.03577         0.08495
C         48.99411        35.33227        -0.18341
C         50.23018        37.44878         0.26254
C         48.99304        38.20788         0.18038
C         50.16703        40.23601         1.08469
C         48.95493        39.54675         0.50558
C         50.16164        41.74251         0.88377
C         48.95304        42.44149         0.94146
C         50.14161        44.45506         0.15718
C         48.90764        43.86539         0.61800
C         50.15024        45.73764        -0.64888
C         48.87083        46.51580        -0.63747
C         50.12389        48.44927        -1.43707
C         48.88191        47.80258        -1.24671
C         51.36826        25.26856         0.42293
C         52.66842        27.39148         0.37936
C         51.46615        26.71638         0.45552
C         52.69593        28.83577        -0.08356
C         51.40406        29.58302         0.10992
C         52.72832        31.73507         0.09298
C         51.41909        31.06095         0.39096
C         52.75627        33.18697        -0.28305
C         51.45711        33.90900        -0.03938
C         52.69891        36.02159         0.33476
C         51.46150        35.31474         0.12294
C         52.67639        37.42246         0.53346
C         51.44512        38.11733         0.51821
C         52.69145        40.28250         1.11487
C         51.44263        39.62728         0.50610
C         52.65714        41.74548         0.73616
C         51.41660        42.41555         0.67552
C         52.63305        44.52018        -0.08345
C         51.35588        43.79587         0.28322
C         52.53076        46.00076         0.31678
C         51.35803        46.61923        -0.40995
C         51.31910        47.90189        -0.90415
C         55.10903        27.45020         0.57176
C         53.94678        26.73852         0.52953
C         55.12039        28.89779         0.50515
C         53.92711        29.59871         0.33335
C         55.18853        31.74539         0.34030
C         53.92514        31.03646         0.24737
C         55.19093        33.17717         0.39037
C         53.98115        33.90909         0.22854
C         55.17694        36.03031         0.63680
C         53.95235        35.30620         0.38385
C         55.17508        37.43752         0.72924
C         53.93016        38.16818         0.64230
C         55.22649        40.29211         0.44653
C         53.93849        39.55233         0.68955
C         55.15790        41.78272         0.70697
C         53.90334        42.45473         0.61616
C         55.07533        44.60603         0.47219
C         53.88480        43.85898         0.43142
C         55.02144        46.05194         0.26852
C         53.85389        46.71365         0.15704
C         56.35208        29.61299         0.61031
C         56.37876        30.98614         0.50892
C         56.38945        33.90994         0.66908
C         56.38681        35.27489         0.76139
C         56.35558        38.19435         1.10288
C         56.37987        39.54787         1.06240
C         56.33078        42.54394         0.75186
C         56.29481        43.93965         0.69275
O         46.61170        43.35319         2.31018
O         36.41646        35.00564        -1.27178
O         45.29717        32.52762        -2.10139
O         37.16379        43.73690        -0.99518
O         40.39897        36.19234         2.03840
O         43.66129        37.37407         2.11970
O         49.35874        27.41706         1.69817
O         44.03968        43.34501         2.42579
O         41.24415        22.97900        -2.17743
O         32.24704        39.84169         2.85460
O         30.05623        37.23942         2.90151
H         30.20416        38.13832         3.26728
O         33.03779        35.53612         2.83453
H         32.33158        36.04267         3.29461
O         41.41461        34.43341        -2.14227
H         41.46914        33.62507        -2.69517
O         52.78969        44.49444        -1.54522
H         53.00456        43.57292        -1.80470
O         29.27990        43.89365         3.26070
H         28.47726        43.44990         3.60907
O         50.10272        39.97075         2.52230
H         49.29699        40.41040         2.86878
O         50.26508        45.29002        -2.05382
H         51.19949        44.97440        -2.17034
O         34.18044        29.97214        -2.61602
H         34.03708        29.11033        -3.06309
O         47.92459        33.24828        -2.33679
H         47.05526        32.92856        -2.68661
O         52.90764        33.20264        -1.76643
H         53.70263        32.66847        -1.98089
O         30.44348        27.85562        -3.01093
H         29.68252        28.42305        -3.25890
O         31.68492        33.21214         2.30122
H         32.32234        33.82038         2.75674
O         52.83142        28.72174        -1.55702
H         53.65310        28.21429        -1.73151
O         48.10177        27.23033        -1.66773
H         47.31782        27.44085        -2.21732
O         36.41857        26.66514         1.12649
H         36.39505        27.57663         1.48795
O         46.37710        26.64463         1.53345
H         46.51723        27.54132         1.90293
O         45.27574        47.18007         1.65090
H         44.47923        46.97655         2.18739
O         35.55254        49.45155         1.16891
H         36.41371        49.91681         1.09616
O         51.43796        39.99260        -0.90397
H         52.23642        39.60086        -1.31741
O         48.69147        24.99631         2.13891
H         49.04313        25.79991         2.59183
O         47.71996        37.80815        -1.80315
H         48.49092        37.34883        -2.19960
O         51.30486        31.14753         1.87764
H         50.51610        30.62371         2.13840
O         52.72279        40.20232         2.56566
H         51.79177        40.20980         2.89953
O         55.44253        40.22407        -1.02635
H         55.65605        39.28957        -1.23853
O         52.19497        46.01530         1.73596
H         52.14674        46.94949         2.02738
O         42.22674        23.08067         1.32967
H         42.96153        23.44474         1.86772
O         40.39350        49.37424         0.65054
H         41.20664        49.92050         0.58868
O         37.84886        36.82599         2.70489
H         38.74634        36.44293         2.87318
O         46.51861        25.32570        -1.89212
H         46.52083        24.39589        -2.20438
O         29.58921        38.01289        -0.65966
H         28.86803        38.44495        -1.16366
H         26.95474        26.95827        -0.98203
H         25.72878        29.04501        -0.54967
H         25.70361        31.44639        -0.00874
H         25.71495        33.34154         0.19351
H         25.74422        35.72889         0.62482
H         25.76766        37.57032         1.04627
H         25.76562        39.98880         1.14374
H         25.76856        41.89643         1.30250
H         25.78500        44.35210         1.26063
H         27.01109        46.50726         1.20365
H         29.01332        25.80266        -1.60855
H         29.13420        47.70486         0.98088
H         32.78827        23.64063        -1.08487
H         30.68531        24.85953        -1.28942
H         32.83664        49.73773         0.02920
H         30.73675        48.58572         0.52371
H         34.40368        22.78103        -1.63488
H         34.28268        50.24453        -1.42320
H         36.50106        21.54143        -1.70456
H         36.31031        51.17452        -2.39574
H         40.17823        19.27689        -1.04551
H         38.12194        20.53224        -1.43662
H         39.98621        52.95975        -3.94028
H         37.91566        52.00957        -3.02442
H         42.62271        19.22386        -0.37806
H         42.46060        52.92683        -4.15589
H         44.75736        20.41537        -0.17147
H         44.63235        51.92027        -3.61941
H         48.47749        22.57138         0.40874
H         46.41760        21.37064        -0.12028
H         48.45286        50.12074        -2.67318
H         46.30709        51.16043        -3.15513
H         50.22600        23.50287         0.30267
H         50.16051        49.45833        -1.86926
H         52.29957        24.69415         0.30839
H         52.21176        48.54463        -0.87048
H         56.06735        26.93085         0.71773
H         53.98056        25.65063         0.68315
H         55.97610        46.59780         0.21723
H         53.85813        47.80912         0.05067
H         57.28658        29.04996         0.74559
H         57.34933        31.49615         0.56825
H         57.34059        33.37630         0.79474
H         57.33671        35.79480         0.94300
H         57.23665        37.65600         1.47988
H         57.28002        40.09163         1.38278
H         57.30728        42.04283         0.80786
H         57.23014        44.51577         0.73802
