         228
 CSIRO Nanostructure Databank - Neutral Graphene Oxide Data Set
C        -10.87680         0.63572        -1.49576
C         -9.70701         1.41666        -1.20977
C         -8.35246         0.76021        -1.31359
C         -7.28445         1.38751        -0.44901
C         -6.09411         0.71968        -0.14639
C         -4.94124         1.44406         0.32578
C         -3.72919         0.72620         0.60897
C         -2.56869         1.44896         0.91549
C         -1.32649         0.77919         1.34276
C         -0.02541         1.48597         1.17328
C          1.20650         0.67462         0.77596
C          2.50733         1.44702         1.02514
C          3.74212         0.70612         1.00405
C          5.06671         1.42385         1.23205
C          6.20528         0.80654         0.43755
C          7.51545         1.47034         0.43643
C          8.63514         0.79007         0.00631
C          9.81398         1.47990        -0.52093
C         10.81252         0.82705        -1.37277
C         -9.77265         2.77874        -1.01568
C         -8.61576         3.52160        -0.63571
C         -7.49174         2.78160         0.05679
C         -6.19874         3.55108         0.15812
C         -5.00240         2.89164         0.40719
C         -3.82477         3.66024         0.80597
C         -2.61097         2.89560         1.14924
C         -1.27851         3.59969         1.38676
C         -0.02025         2.84536         1.10579
C          1.21491         3.56867         0.60132
C          2.49862         2.83299         0.95909
C          3.76308         3.59017         0.76054
C          5.07263         2.91454         0.95701
C          6.24652         3.58741         0.79931
C          7.60326         2.90973         0.85126
C          8.68043         3.62131         0.04446
C          9.78243         2.86448        -0.49657
C         -8.56697         4.89492        -0.77377
C         -7.41136         5.64967        -0.44469
C         -6.33666         5.02821         0.41737
C         -5.01734         5.75780         0.37679
C         -3.83587         5.05591         0.82706
C         -2.58766         5.83122         1.13117
C         -1.23826         5.12199         1.48348
C          0.00883         5.75851         0.89433
C          1.20016         5.08066         0.83424
C          2.45029         5.83183         0.72450
C          3.73910         5.08696         0.68310
C          5.01829         5.83973         0.96531
C          6.29656         5.07499         0.84252
C          7.47802         5.77509         0.26253
C          8.61615         4.97801        -0.14166
C         -7.29090         6.95400        -0.90651
C         -6.11698         7.70675        -0.69205
C         -5.00375         7.09879        -0.03148
C         -3.81791         7.93842         0.20518
C         -2.56480         7.27160         0.69327
C         -1.27588         7.78235         0.07280
C         -0.04200         7.24220         0.77169
C          1.23913         7.98691         0.55383
C          2.47664         7.19274         0.56216
C          3.73028         7.98659         0.47320
C          5.03683         7.33257         0.75411
C          6.35521         8.04557         0.41381
C          7.44664         7.10557        -0.02520
C         -5.98538         8.99895        -1.32338
C         -4.84305         9.73415        -1.27372
C         -3.72874         9.31044        -0.41186
C         -2.39262         9.92965        -0.55601
C         -1.24386         9.27117        -0.23437
C          0.04104         9.89505        -0.46660
C          1.23334         9.28111        -0.17797
C          2.49477         9.84700        -0.59090
C          3.69416         9.24938        -0.30489
C          4.95247         9.76405        -0.81425
C          6.14625         9.17883        -0.57229
C        -10.81792        -0.72216        -1.62387
C         -9.57792        -1.44532        -1.41194
C         -8.40319        -0.72984        -1.17957
C         -7.12813        -1.41731        -0.96412
C         -5.99537        -0.71414        -0.33578
C         -4.91312        -1.44177         0.17510
C         -3.72545        -0.73330         0.62693
C         -2.57748        -1.44985         0.99883
C         -1.33545        -0.71835         1.35641
C         -0.04532        -1.45564         1.42854
C          1.23656        -0.78557         1.26198
C          2.48442        -1.42921         1.19830
C          3.72420        -0.70217         0.90391
C          4.93948        -1.41353         0.51536
C          6.12586        -0.65112         0.08056
C          7.40529        -1.36732        -0.05614
C          8.55293        -0.64639        -0.01713
C         10.05768        -1.54646        -1.35105
C         10.89146        -0.45478        -1.84729
C         -9.60730        -2.87319        -1.33548
C         -8.47966        -3.62140        -0.99230
C         -7.17533        -2.93428        -0.86559
C         -6.11152        -3.58603        -0.09478
C         -4.98757        -2.88032         0.32501
C         -3.98273        -3.49698         1.29245
C         -2.60260        -2.88777         1.12937
C         -1.45372        -3.55870         1.54994
C         -0.28240        -2.77319         1.83778
C          1.51204        -3.82483         1.46204
C          2.65599        -2.90461         1.31243
C          3.85268        -3.56582         0.74615
C          5.03158        -2.79215         0.34590
C          6.17964        -3.53362        -0.09683
C          7.52943        -2.86586        -0.18802
C          8.17793        -3.30126        -1.53828
C          9.44295        -2.56758        -2.00535
C         -8.52540        -5.02005        -0.79108
C         -7.38288        -5.74017        -0.37516
C         -6.22999        -5.00547         0.08102
C         -5.09278        -5.70461         0.52452
C         -4.07248        -5.07077         1.43809
C         -2.65651        -5.89956         1.60367
C         -1.34050        -5.06098         1.54352
C         -0.03897        -5.71373         0.99612
C          1.22410        -4.94018         0.73663
C          2.35543        -5.53474        -0.04511
C          3.67439        -4.85689         0.03336
C          4.92931        -5.62777        -0.06486
C          6.16128        -4.92739        -0.28439
C          7.30054        -5.60894        -0.95504
C          8.26731        -4.82181        -1.53768
C         -7.37259        -7.16954        -0.35301
C         -6.17729        -7.86591        -0.14164
C         -5.03652        -7.07684         0.21274
C         -3.71498        -7.57929         0.06134
C         -2.60119        -7.10627         0.67653
C         -1.36691        -7.83555         0.26238
C         -0.11669        -7.03988         0.25949
C          1.14153        -7.79977        -0.05750
C          2.40643        -7.02500        -0.23347
C          3.67120        -7.75230        -0.00624
C          4.84632        -6.98602         0.19086
C          6.55805        -8.00359        -0.62799
C          7.27919        -7.04577        -1.29583
C         -6.12814        -9.32812        -0.08119
C         -5.04837       -10.16411         0.07617
C         -3.66973        -9.74372        -0.09096
C         -2.47139       -10.16846         0.43685
C         -1.27113        -9.34644         0.30277
C         -0.02464        -9.95208         0.35912
C          1.22111        -9.25483         0.17011
C          2.45333        -9.87893        -0.02299
C          3.69392        -9.15821        -0.15362
C          4.89282        -9.85829        -0.60692
C          6.10975        -9.34126        -0.98871
O          6.01415        -7.62158         0.61916
O          8.31121        -3.39851         0.90183
H          9.16039        -2.89824         0.92066
O          6.84750         8.68161         1.62366
H          6.05964         8.83419         2.19767
O         -1.28419         7.13017        -1.24554
H         -0.58042         7.53570        -1.79547
O         -0.37289        -5.71782         2.40828
O          2.85416        -4.75496        -1.18846
O          5.37604         1.26637         2.64615
H          5.16695         0.34672         2.91334
O         -4.37993        -2.95092         2.57817
H         -4.76828        -3.73856         3.06514
O          0.70454        -3.45437         2.53597
O          3.79141         4.30610        -0.58044
O         -1.00209         5.38652         2.89021
H         -1.63102         4.83252         3.40523
O          5.77982         5.50844         2.16007
O         -2.68604        -6.45681         2.92221
H         -3.59582        -6.23209         3.28004
O         -2.70811         6.94819         2.08622
O         -4.13084         9.13496         1.00218
O          9.77102        -1.35437         0.02170
O         -7.91374         1.02134        -2.71105
H         -7.28663         0.30922        -2.96481
O          5.82680         0.38440        -0.92308
O          7.18835        -2.96922        -2.55295
H          7.45669        -3.38488        -3.39840
O         -2.05266         3.11332         2.51695
O         -6.84075         5.16457         1.82129
H         -6.06358         5.10147         2.41851
O         -3.56278        -8.59573        -0.89680
O         -0.93801        -7.09502        -0.95755
O          0.51842         8.02711         1.84624
O          1.65830        -7.46934        -1.40026
O          1.10733         0.57855        -0.68155
H          1.14946         1.50540        -1.03068
O          8.03745         2.94353         2.24191
H          8.91786         2.51674         2.29449
O          1.15085         3.44877        -0.87476
H          2.03037         3.77272        -1.20032
O         -7.96857         2.65439         1.45344
H         -7.83115         3.54663         1.86527
O          3.70549        -3.48301         2.20919
O         -6.72481        -2.28040        -2.10083
O         -1.49809         0.06243         2.61942
O         -4.84015        -5.35093         2.59799
O          4.35255         8.07188         1.82201
H         11.61385        -0.66189        -2.65273
H         11.52350         1.54228        -1.82139
H         10.57202         3.42939        -1.01773
H          9.44631         5.49674        -0.64724
H          8.33261         7.56607        -0.49051
H          7.05721         9.62900        -0.99585
H          4.90339        10.65587        -1.45855
H          2.47688        10.77744        -1.17897
H          0.04639        10.88892        -0.94045
H         -2.34169        10.97555        -0.89786
H         -4.74570        10.66272        -1.85482
H         -6.83408         9.35100        -1.92869
H         -8.10464         7.39022        -1.50548
H         -9.40305         5.41311        -1.27005
H        -10.72650         3.31044        -1.16251
H        -11.84256         1.15652        -1.57670
H        -11.73003        -1.30143        -1.82654
H        -10.57088        -3.38604        -1.47497
H         -9.46287        -5.55926        -0.99639
H         -8.29638        -7.71266        -0.60255
H         -7.12146        -9.80534        -0.02651
H         -5.24753       -11.22293         0.30596
H         -2.39262       -11.12980         0.96635
H          0.01683       -11.04889         0.45137
H          2.49421       -10.97933        -0.03595
H          4.71638       -10.91538        -0.86896
H          6.78809        -9.99174        -1.56391
H          7.80433        -7.33075        -2.22100
H          9.03643        -5.29786        -2.16748
H          9.65344        -2.67679        -3.08287
