         429
 CSIRO Nanostructure Databank - Neutral Graphene Oxide Data Set
C          1.12063         3.84579        -0.62164
C         -0.04458         4.51064        -0.27495
C          1.16205         6.62931        -0.04318
C         -0.03861         5.88402         0.01154
C          1.18962         8.07340         0.27540
C         -0.00410         8.83070         0.39145
C          1.25898        10.83668         1.01669
C          0.03519        10.16273         0.75144
C          1.27812        12.21395         1.40620
C          0.10994        12.99029         1.58281
C          1.28956        15.13475         1.29200
C          0.11393        14.38026         1.54298
C          1.26482        16.45853         0.78267
C          0.01651        17.12073         0.51357
C          1.18655        19.00795        -0.53033
C         -0.03717        18.32776        -0.10810
C          1.18428        20.54769        -0.73883
C         -0.04498        21.30826        -0.50432
C          1.20871        23.41110        -0.53401
C         -0.01551        22.65859        -0.38963
C          1.18318        24.81237        -0.67547
C         -0.01745        25.57504        -0.69955
C          1.15317        27.74843        -0.60553
C         -0.03133        26.95406        -0.66879
C          1.13321        29.12841        -0.38726
C         -0.08580        29.86803        -0.25439
C          1.07837        31.99334         0.25349
C         -0.13095        31.20812         0.01552
C          1.13461        33.49509        -0.08714
C         -0.07148        34.20856        -0.52635
C          1.24990        36.20179        -1.00277
C         -0.00234        35.50402        -0.94080
C          1.30151        37.59094        -1.27404
C          3.54555         3.89254        -1.06505
C          2.36182         4.55411        -0.69487
C          3.63659         6.73059        -0.47756
C          2.34820         5.95601        -0.38188
C          3.64625         7.92863         0.44666
C          2.41003         8.73049         0.51170
C          3.76511        10.76827         1.00065
C          2.48878        10.10729         0.87608
C          3.81880        12.18659         1.24917
C          2.56675        12.87396         1.59809
C          3.82410        15.07969         1.11958
C          2.57286        14.45075         1.51273
C          3.78882        16.51748         0.79187
C          2.48851        17.15038         0.43543
C          3.70576        19.04988        -0.79174
C          2.47370        18.37868        -0.19857
C          3.69276        20.56729        -0.65051
C          2.46906        21.27368        -0.61984
C          3.70674        23.40440        -0.58496
C          2.45819        22.69179        -0.58107
C          3.71705        24.82392        -0.58986
C          2.45526        25.53405        -0.84665
C          3.69740        27.72641        -0.37195
C          2.45005        27.05784        -0.80735
C          3.66310        29.11196        -0.10814
C          2.42463        29.92076        -0.45546
C          3.62337        31.98847         0.12393
C          2.37019        31.20351         0.40518
C          3.65895        33.35111        -0.23282
C          2.43033        34.10221        -0.39850
C          3.70438        36.15257        -0.93136
C          2.46939        35.46909        -0.80323
C          3.73441        37.56478        -1.08208
C          2.50374        38.26932        -1.27704
C          6.07770         3.78379        -0.95141
C          4.85150         4.62212        -1.20356
C          6.13529         6.59491        -0.26351
C          4.84707         5.81346        -0.21995
C          6.18294         7.89907         0.15043
C          4.96818         8.59188         0.65314
C          6.22474        10.72118         0.73928
C          4.99399        10.05765         0.82557
C          6.25351        12.19691         0.79508
C          5.01022        12.91595         1.15509
C          6.28725        15.05946         0.90535
C          5.02857        14.36700         1.13511
C          6.30930        16.34873         0.36904
C          5.06612        17.14915         0.33045
C          6.19529        19.07272        -0.71741
C          5.03501        18.44994        -0.37835
C          6.15884        20.52694        -1.03734
C          4.91290        21.26883        -0.71836
C          6.18272        23.43092        -0.62385
C          4.94160        22.68889        -0.65096
C          6.15762        24.84008        -0.46591
C          4.92820        25.54849        -0.46037
C          6.09448        27.64888         0.20537
C          4.89644        26.98894        -0.25018
C          6.02399        29.04043         0.55205
C          4.83549        29.75770         0.34875
C          6.13645        31.79837        -0.12838
C          4.87565        31.26463         0.53170
C          6.15340        33.24014        -0.50434
C          4.90278        33.98530        -0.51992
C          6.18499        36.14039        -0.49143
C          4.99214        35.38928        -1.05470
C          6.15292        37.59357        -0.52858
C          4.96145        38.25709        -0.95590
C          8.50341         3.63108        -0.63008
C          7.29655         4.38777        -0.73501
C          8.59937         6.47660        -0.10694
C          7.38001         5.90514        -0.77766
C          8.64858         7.83607         0.21283
C          7.43868         8.61487         0.23860
C          8.72274        10.65848         0.68372
C          7.45059         9.99320         0.52875
C          8.78633        12.01298         1.07353
C          7.59221        12.90049         0.94122
C          8.79624        15.14005         0.92304
C          7.56043        14.37913         1.38751
C          8.74186        16.36039         0.17779
C          7.51501        16.99045        -0.06314
C          8.76370        19.02797        -0.92877
C          7.45497        18.22978        -0.93736
C          8.76321        20.55308        -0.98500
C          7.46321        21.31592        -1.04068
C          8.62835        23.41892        -0.25020
C          7.43869        22.74205        -0.64954
C          8.65244        24.80822        -0.05154
C          7.44995        25.62198        -0.49642
C          8.52197        27.54293         0.77603
C          7.30908        26.92762         0.24640
C          8.53020        29.02149         1.06928
C          7.23961        29.82374         1.04634
C          8.66269        31.87496         0.40204
C          7.40179        31.10315         0.23473
C          8.64924        33.30886         0.23958
C          7.46610        34.01056        -0.30213
C          8.52460        36.19148         0.27992
C          7.35692        35.47843        -0.13168
C          8.47048        37.68807         0.47612
C          7.26038        38.32551        -0.13030
C         10.96123         3.52658        -0.34334
C          9.74243         4.21566        -0.29965
C         11.08079         6.28954         0.53418
C          9.72377         5.60919         0.20040
C         11.11967         7.76076         0.51465
C          9.91200         8.48856         0.48627
C         11.20550        10.57276         0.65877
C          9.94437         9.90621         0.63331
C         11.26522        11.97334         0.93204
C         10.06084        12.51298         1.41940
C         11.27277        15.02191         0.61921
C         10.04612        14.63793         1.23602
C         11.24350        16.34586         0.09900
C         10.00210        17.02079        -0.09481
C         11.22598        19.10450        -0.50524
C         10.01158        18.36959        -0.49934
C         11.17727        20.54753        -0.49541
C          9.98003        21.23978        -0.52682
C         11.10325        23.33861         0.42442
C          9.85712        22.62014         0.00673
C         11.11415        24.81151         0.53679
C          9.85078        25.51067         0.36808
C         11.01885        27.56816         1.26355
C          9.82148        26.86994         0.65191
C         11.00121        29.07067         1.08394
C          9.82394        29.75530         0.97242
C         11.06967        31.92537         0.98779
C          9.81753        31.20371         0.79834
C         10.98301        33.40567         1.05892
C          9.76041        34.07456         0.59333
C         10.98361        36.25272         0.45894
C          9.73778        35.51616         0.50210
C         10.93361        37.64349         0.02979
C          9.74112        38.33226        -0.00278
C         13.44275         3.45090        -0.30331
C         12.22637         4.16511        -0.10041
C         13.61386         6.14534         0.62905
C         12.29032         5.53169         0.24932
C         13.62443         7.67606         0.61017
C         12.36696         8.43397         0.53653
C         13.64495        10.57398         0.24996
C         12.42130         9.84416         0.52365
C         13.61114        12.03811         0.20329
C         12.46271        12.75518         0.64874
C         13.66190        14.87516         0.14352
C         12.45205        14.20102         0.52623
C         13.68928        16.29408        -0.00708
C         12.47440        17.02722        -0.11084
C         13.71722        19.14546        -0.21186
C         12.46558        18.43218        -0.31206
C         13.72653        20.54146        -0.16231
C         12.45875        21.27367        -0.34731
C         13.63697        23.29708         0.67164
C         12.41101        22.69949         0.08843
C         13.58541        24.77528         0.96050
C         12.30254        25.49095         0.76674
C         13.53293        27.61999         0.87730
C         12.33374        26.92539         0.88120
C         13.50781        29.13232         0.73244
C         12.29001        29.78103         1.42672
C         13.56975        32.02875         1.38825
C         12.26212        31.27261         1.16819
C         13.52119        33.45117         0.89768
C         12.28742        34.21838         1.05803
C         13.45210        36.29057         0.25501
C         12.22516        35.61823         0.57923
C         13.37796        37.62459        -0.33103
C         12.15229        38.25077        -0.42527
C         15.88284         3.39817        -0.70092
C         14.70560         4.10567        -0.34110
C         15.98468         6.21148        -0.31322
C         14.78549         5.50881        -0.07762
C         16.03579         7.65517        -0.29993
C         14.87359         8.43201         0.17980
C         15.78898        10.49387        -1.04561
C         14.79042         9.86689        -0.10147
C         15.91639        12.00042        -0.82428
C         14.77702        12.73315        -0.23249
C         16.12332        14.83541        -0.27821
C         14.86034        14.13974        -0.12906
C         16.15620        16.27469        -0.15436
C         14.93638        16.99457        -0.10153
C         16.18687        19.12300        -0.05452
C         14.95002        18.41848        -0.11209
C         16.18462        20.55199         0.08923
C         14.94581        21.25301         0.08508
C         16.10991        23.35773         0.65480
C         14.92268        22.64232         0.40000
C         16.07638        24.80563         0.82525
C         14.85388        25.51685         0.87874
C         16.03451        27.66394         0.71283
C         14.80580        26.93237         0.82410
C         16.03080        29.07891         0.65599
C         14.82742        29.80755         1.19767
C         15.89914        31.93444         0.33108
C         14.79146        31.28251         0.88715
C         15.84898        33.36195         0.09926
C         14.66933        34.09745         0.44311
C         15.93450        36.17997         0.22003
C         14.66062        35.54776         0.31315
C         15.79043        38.16790        -0.61722
C         14.50735        38.25751        -1.02912
C         18.33233         3.36374        -1.12765
C         17.11042         4.06366        -0.83974
C         18.38258         6.18115        -0.88861
C         17.15365         5.48744        -0.70629
C         18.40067         7.60335        -0.86887
C         17.17473         8.32390        -0.71466
C         18.43701        10.49755        -0.74904
C         17.18137         9.75936        -1.19685
C         18.49525        11.87863        -0.72456
C         17.26597        12.68992        -0.80473
C         18.59958        14.76184        -0.37917
C         17.32084        14.11276        -0.42188
C         18.63065        16.23570        -0.42654
C         17.38346        16.99724        -0.21211
C         18.70758        19.17600        -0.26372
C         17.41116        18.39650        -0.11147
C         18.65387        20.56320         0.34555
C         17.40325        21.26310         0.36830
C         18.55333        23.39159         1.05024
C         17.34058        22.65072         0.66751
C         18.55940        24.85692         0.88327
C         17.30518        25.53929         0.78934
C         18.50774        27.68731         0.62276
C         17.27996        26.95563         0.68003
C         18.48085        29.09743         0.39275
C         17.20671        29.79508         0.34022
C         18.32434        31.86921        -0.41229
C         17.11999        31.18802         0.05908
C         18.31481        33.34180        -0.67528
C         16.95918        34.09793        -0.50113
C         18.24474        36.27401        -0.73891
C         17.05051        35.55568        -0.32345
C         18.25698        37.66882        -1.06453
C         17.04572        38.56600        -1.33380
C         19.52707         4.03176        -1.23384
C         20.81009         6.17658        -1.19491
C         19.59093         5.45547        -1.11070
C         20.83996         7.55203        -1.04435
C         19.64359         8.30752        -0.88377
C         20.84606        10.40317        -0.23434
C         19.65013         9.72378        -0.66092
C         20.92576        11.75668        -0.20292
C         19.83425        12.58878        -0.81345
C         21.02992        14.73492        -0.12162
C         19.80195        14.04913        -0.39538
C         21.10366        16.08357         0.09708
C         19.97139        16.95217        -0.21369
C         21.04771        19.04749         0.61847
C         19.93472        18.38688         0.15037
C         21.04481        20.44782         0.82675
C         19.86312        21.19543         0.71076
C         21.07491        23.46221         0.84172
C         19.87659        22.64220         1.07094
C         21.01545        24.81975         0.82852
C         19.77085        25.55993         0.87821
C         20.94013        27.77150         0.81120
C         19.75392        27.00376         0.76926
C         20.90907        29.14595         0.62866
C         19.69715        29.81698         0.37637
C         20.77427        32.14738         0.23646
C         19.69109        31.22116        -0.09277
C         20.68419        33.49935         0.01433
C         19.52126        34.12783        -0.51824
C         20.69198        36.23193        -1.05660
C         19.48283        35.54617        -0.78627
C         20.69208        37.59192        -1.31106
C         19.47784        38.29266        -1.33572
O          8.97510        19.74859        -2.18771
O          6.74754        21.00453        -2.28668
O         12.57400        22.39706        -1.32766
O         11.54691        33.95393         2.30764
O         13.50870        23.77159         2.04485
O          0.97811        32.97685         1.32978
O          8.43779        28.08539         2.19834
O          4.31159         7.81251         1.74545
O          2.53333        26.35347        -2.08327
O          2.64967        13.72066         2.77337
O         19.13639        31.23665        -1.45227
O         19.41928        16.72554        -1.57357
O          4.56953        17.35320         1.73260
O         10.12157        13.65150         2.21958
O         16.03390        37.52352         0.61683
O          1.10975        19.61432        -1.87769
O          7.05330        33.53608        -1.63332
O         10.21261         5.72627         1.57250
O          6.98184        12.76468        -0.37453
O         10.29611        22.65323         1.43584
O         14.56292         8.17366         1.61790
O         19.16473        22.93604         2.31633
O          6.81577        30.95537        -1.10155
O         16.46242        12.57541        -2.06762
O         17.45421        33.65891        -1.80491
O          7.71102        25.97801        -1.91545
H          7.52198        25.18506        -2.46136
O         15.10160        10.35869        -2.32126
H         15.47662        11.03932        -2.92397
O          7.30431        17.72878        -2.29385
H          7.52202        18.48007        -2.89322
O         10.94690        27.33523         2.72563
H         10.01200        27.54390         2.98208
O          7.02822        30.22594         2.41886
H          7.19088        29.43256         2.97636
O          4.71850         5.22172         1.09147
H          4.68493         5.96613         1.74176
O          3.63995        18.76979        -2.22561
H          2.76248        19.10224        -2.54067
O          5.21655        35.28125        -2.51342
H          5.98902        34.67111        -2.62602
O         13.34262        29.41114        -0.68023
H         14.07533        28.98174        -1.16990
O          7.50266        14.36064         2.83485
H          7.36816        15.27743         3.15305
O         17.42134         9.62752        -2.63111
H         17.63258        10.52069        -2.97856
O          3.72700         7.30890        -1.80505
H          3.94626         6.56577        -2.42824
O          4.94455         5.11362        -2.58641
H          5.86835         5.46290        -2.70602
O          7.45872         6.23572        -2.22616
H          7.50335         7.21393        -2.30001
O          2.56294        30.38573        -1.82722
H          2.67938        29.60254        -2.40623
O         18.85398        19.40092        -1.71712
H         19.02556        18.50862        -2.10996
O         13.71146        32.13061         2.86379
H         12.91553        32.62565         3.17537
O         20.13955        12.65696        -2.26068
H         19.48090        13.25931        -2.66914
O          4.99039        31.60839         1.94352
H          4.19696        31.21675         2.38191
O         13.77755         5.75880         2.03845
H         14.32897         6.46471         2.45205
O          8.38516        37.92792         1.93837
H          9.18698        37.52938         2.34032
O         14.97889        29.66723         2.63626
H         14.36541        30.31595         3.06577
O         16.80807        38.60872        -2.74997
H         16.74750        37.68995        -3.08361
O          2.40326        30.77387         1.80048
H          1.96407        31.49114         2.31421
O         12.40682        29.62734         2.86897
H         12.06454        28.72495         3.10420
H          1.10175         2.76997        -0.84697
H         -0.99221         3.95642        -0.21977
H         -0.98172         6.36974         0.29605
H         -0.97776         8.36170         0.19545
H         -0.91205        10.71230         0.83278
H         -0.86616        12.48900         1.64141
H         -0.85902        14.88866         1.58179
H         -0.92509        16.62767         0.78845
H         -1.00924        18.77508        -0.35404
H         -1.00606        20.77818        -0.47504
H         -0.96047        23.19591        -0.23560
H         -0.98506        25.05581        -0.70601
H         -1.00951        27.45293        -0.64663
H         -1.04218        29.33703        -0.36081
H         -1.10622        31.70374         0.11896
H         -1.04694        33.71382        -0.42596
H         -0.92144        36.04786        -1.20434
H          0.36046        38.13470        -1.44191
H          3.50423         2.81767        -1.30118
H          2.52954        39.35717        -1.43287
H          6.00671         2.68519        -0.98273
H          4.96948        39.35409        -1.04337
H          8.45962         2.54758        -0.82037
H          7.22574        39.42509        -0.17129
H         10.96525         2.47327        -0.66146
H          9.72324        39.38440        -0.32392
H         13.39565         2.37788        -0.54145
H         12.09025        39.24507        -0.89177
H         15.82966         2.31091        -0.85974
H         14.27926        38.82780        -1.94166
H         18.29911         2.26986        -1.23635
H         17.32329        39.61154        -1.02986
H         20.45570         3.47473        -1.42663
H         21.74723         5.62447        -1.35781
H         21.80612         8.07394        -1.08624
H         21.69788         9.80245         0.11725
H         21.84569        12.23530         0.15928
H         21.94462        14.14102         0.01122
H         22.03574        16.52172         0.48006
H         21.97450        18.49407         0.82820
H         21.97140        20.93328         1.16053
H         22.03394        22.96176         0.64337
H         21.94945        25.37666         0.67120
H         21.91108        27.28490         0.97104
H         21.85319        29.70804         0.63206
H         21.65019        31.75472         0.77191
H         21.54027        34.13029         0.29335
H         21.63467        35.67012        -1.10104
H         21.63174        38.11622        -1.53119
H         19.48118        39.36096        -1.59613
