         260
 CSIRO Nanostructure Databank - Neutral Graphene Oxide Data Set
C         30.92936        32.00225        -2.24644
C         30.85854        33.21368        -1.91224
C         30.74898        36.35218        -1.25023
C         30.54225        37.43083        -0.67865
C         30.32576        40.43439         0.46881
C         30.42950        41.60445         0.06810
C         33.08448        29.06671        -1.48923
C         32.16947        29.69431        -2.07102
C         33.29624        31.81972        -1.88794
C         31.99343        31.09451        -2.12709
C         33.27792        33.32945        -1.66643
C         31.98656        34.13606        -1.77185
C         32.98711        36.10505        -0.58533
C         31.91252        35.49157        -1.19008
C         32.93892        37.62161        -0.32870
C         31.54103        38.15628         0.12650
C         32.70269        40.37882         1.11508
C         31.44591        39.52031         0.71422
C         32.74886        41.78228         0.51588
C         31.59623        42.45207         0.11753
C         32.79851        44.54888         0.15842
C         31.78634        43.86292        -0.06253
C         35.45060        27.47299        -0.01513
C         35.21509        28.94844        -0.07805
C         34.55680        29.43317        -1.37652
C         35.57312        31.69612        -0.63217
C         34.53896        31.01322        -1.42260
C         35.70865        33.20957        -0.74440
C         34.33517        33.88471        -0.74208
C         35.38440        35.95089         0.36114
C         34.17197        35.27872        -0.19148
C         35.20876        37.32569         0.89223
C         33.98737        38.14816         0.63485
C         35.20265        40.32662         0.91311
C         34.01215        39.64809         0.84218
C         35.31580        41.79204         0.99799
C         34.08418        42.53584         0.44706
C         35.25379        44.73392         0.90313
C         33.93599        43.99895         1.01743
C         35.49381        45.93638         0.08878
C         37.84496        27.28679         0.39087
C         36.48630        26.81610         0.07463
C         37.89993        28.71768        -0.21409
C         36.64579        29.57001        -0.02660
C         38.04412        31.72031        -0.05186
C         36.68552        30.94569        -0.17881
C         37.82233        33.01991         0.73266
C         36.59203        33.78576         0.37162
C         37.77877        35.92895         1.06744
C         36.52392        35.24966         0.62566
C         37.76943        37.39554         1.32913
C         36.42275        38.10636         1.40337
C         37.93034        40.52308         2.03333
C         36.36751        39.42286         0.56942
C         37.81365        41.80448         1.36568
C         36.51116        42.48224         1.20193
C         37.87528        44.66916         0.69295
C         36.55454        43.98634         1.06577
C         37.98018        46.14642        -0.00919
C         36.54038        46.38237        -0.37713
C         39.98296        24.64130        -0.64344
C         39.18725        25.07384         0.22782
C         40.44573        27.18268         0.53698
C         39.10323        26.50030         0.58128
C         40.43878        28.68205         0.47399
C         39.19691        29.44451         0.16502
C         40.11944        31.47446         1.52132
C         39.03900        30.83550         0.70302
C         40.14472        32.97147         1.62129
C         39.03105        33.68941         1.30891
C         40.07241        35.86723         2.25470
C         38.90007        35.13379         1.67132
C         40.17393        37.40378         2.38164
C         38.85081        38.10158         2.08299
C         40.18965        40.11195         1.03348
C         38.91421        39.51663         1.60780
C         40.25563        41.59393         0.88606
C         39.02757        42.36751         0.95873
C         40.24269        44.24925        -0.16702
C         39.09438        43.81903         0.65326
C         40.11386        45.24332        -1.09928
C         39.02976        46.21040        -1.10688
C         40.22628        48.17030        -2.32850
C         39.46554        47.36936        -1.71560
C         42.05778        25.32486        -1.86946
C         41.38112        24.79455        -0.81734
C         42.91275        27.40292         0.49289
C         41.68751        26.59378         0.59651
C         42.90984        28.76768         0.61702
C         41.61110        29.36031         1.13048
C         42.62556        31.55905         1.95696
C         41.41877        30.73065         1.74672
C         42.67738        32.92582         1.90678
C         41.33810        33.56935         2.35908
C         42.65588        35.82152         2.18452
C         41.36549        35.09825         2.39992
C         42.59970        37.24750         1.74505
C         41.42576        37.96392         1.68336
C         42.60128        39.93391         0.73279
C         41.44468        39.32762         1.16072
C         42.58876        41.28102         0.13305
C         41.42521        42.13635         0.39408
C         42.74387        44.13603        -0.56067
C         41.55176        43.62636         0.24155
C         42.57710        45.11063        -1.68758
C         41.16672        45.34749        -2.15917
C         42.54686        47.87053        -2.87513
C         41.41310        48.74936        -2.73604
C         42.94055        26.12131        -2.35418
C         44.61962        28.19100        -2.15631
C         43.41838        27.38952        -2.44933
C         44.73853        29.45512        -1.26803
C         43.96567        29.65335         0.02558
C         45.22447        31.79083         0.55782
C         44.42927        30.75076         0.90514
C         45.28148        32.97988         1.48280
C         43.94542        33.67063         1.80908
C         45.14794        35.82157         2.06498
C         43.89980        35.04591         1.87331
C         45.15607        37.34090         1.97832
C         43.88764        37.83607         1.29119
C         45.16685        40.01339         0.65677
C         43.89362        39.24307         0.78461
C         45.17575        41.17176        -0.05135
C         43.89542        41.86413        -0.36344
C         45.22161        43.91328        -1.18956
C         44.02242        43.35418        -0.49459
C         45.07611        45.20868        -1.94607
C         43.73810        45.52845        -2.60309
C         43.37709        46.97405        -2.83759
C         46.98556        28.42943        -2.43815
C         45.97343        27.71552        -2.48062
C         47.30509        29.69186        -1.87494
C         46.02861        30.32314        -1.38546
C         47.54946        32.25798        -0.38087
C         46.19081        31.58252        -0.55239
C         47.75632        33.38233         0.61127
C         46.59060        33.73723         1.55236
C         47.65953        36.02704         2.12689
C         46.46646        35.15484         2.07013
C         47.77537        37.32154         1.73660
C         46.47051        37.93320         1.22160
C         47.72178        40.19809         1.00625
C         46.41274        39.47397         1.35165
C         47.72165        41.39824         0.05202
C         46.44876        41.54372        -0.84212
C         47.63766        43.57937        -2.16948
C         46.36177        42.97049        -1.56707
C         47.52187        45.05492        -2.26358
C         46.33788        45.51388        -2.44207
C         49.80080        29.75792        -2.11677
C         48.55141        30.24704        -1.67868
C         50.15162        32.07008        -0.68446
C         48.76438        31.45982        -0.80908
C         50.22558        33.50824        -0.20991
C         49.18037        33.91523         0.79613
C         50.62986        35.93320         1.45721
C         49.49508        34.98337         1.58334
C         50.36700        37.42105         1.61009
C         49.05953        38.04367         1.61040
C         50.14888        40.21814         1.55250
C         48.97620        39.46650         1.42438
C         50.20179        42.00935         0.20919
C         48.97271        41.95547        -0.59543
C         50.25403        43.55385        -1.96164
C         48.93982        42.91206        -1.86533
C         50.94899        30.28375        -2.09371
C         52.44814        32.30956        -1.41098
C         51.32210        31.46763        -1.46322
C         52.63451        33.33336        -0.70662
C         51.58504        34.22883        -0.20797
C         52.77562        36.48106         0.30058
C         51.83837        35.40275         0.67924
C         52.65536        37.53628         0.96070
C         51.52424        38.26499         1.44106
C         52.44589        40.64951         1.17522
C         51.45133        39.66480         1.52038
C         52.47834        41.67035         0.46503
C         51.46668        42.41247        -0.23598
C         51.32844        43.13561        -1.47250
O         34.08433        37.37076         1.86662
O         46.65190        42.89875        -2.96919
O         43.93013        38.06413        -0.14649
O         50.57199        34.48762        -1.22793
O         42.14505        35.56645         3.54830
O         31.29790        38.34013         1.53141
O         42.98281        41.27901        -1.31666
O         45.08242        43.96214         0.28535
O         47.45229        33.64280        -0.81124
O         51.78450        35.26378         2.11119
O         45.73708        31.64418        -1.93653
O         40.20697        29.25379        -0.86719
O         42.85816        45.56761        -0.32767
O         45.74993        35.31858         3.33700
O         38.31110        27.00765         1.71050
O         46.53183        40.58622        -1.80621
O         39.02179        35.34773         3.12905
O         43.54809        30.25368        -1.27962
O         35.93801        44.76595         2.17526
O         49.63208        31.17191         0.34333
O         49.07905        41.49595        -1.97856
O         40.88787        45.49362        -3.33399
O         48.72169        35.31687         2.69351
O         39.18246        39.58125         0.14520
O         36.92053        39.54498        -0.50446
O         41.41666        29.51496         2.56525
O         50.06903        41.62588         1.55024
O         36.64655        32.99777         1.60384
O         33.79117        34.07616         0.59243
O         38.77377        44.65100         1.83895
O         38.93236        30.87434         2.14701
O         47.58556        41.60782         1.46151
O         38.19055        36.88499         0.01379
O         43.78672        30.80145         2.13977
O         43.74538        28.30406        -3.39335
O         38.48673        31.99174        -1.33174
O         32.96028        34.07790        -2.86573
O         46.24554        32.75985         2.56860
O         41.97075        25.21042         0.47417
O         34.37110        31.45204        -2.81191
O         32.61490        40.53899         2.54784
H         32.26791        39.70020         2.92427
O         37.93661        28.46948        -1.63573
H         38.26097        29.28126        -2.08449
O         35.25763        28.97339        -2.49166
H         35.00067        29.51360        -3.27163
O         41.80138        44.07287         1.60772
H         42.03322        45.02812         1.55873
O         40.44672        37.65954         3.79566
H         40.02123        36.94056         4.31245
O         45.05392        37.81103         3.32200
H         45.48480        37.14801         3.90932
O         37.33886        40.42693         3.19063
H         37.38470        39.50167         3.54864
O         33.52715        43.93820         2.35276
H         33.98031        44.63385         2.87435
O         46.45733        37.54512        -0.15139
H         45.70842        37.98202        -0.62630
O         41.55700        50.05230        -3.00907
H         40.71905        50.53243        -2.85695
O         36.18269        38.34639         2.80261
H         35.25025        38.06255         2.99445
O         46.22420        39.80570         2.74430
H         46.42774        40.76266         2.84472
O         43.66101        44.79555        -3.82086
H         44.42644        45.02306        -4.38872
O         44.04236        26.71952         0.18349
H         43.80699        25.75950         0.19985
O         38.36020        47.06115         0.98816
H         37.79545        46.93131         1.77817
O         33.21683        38.27400        -1.58519
H         32.62940        37.89660        -2.27533
O         34.42065        29.43500         0.98363
H         34.77259        29.10334         1.83548
O         34.41383        42.72973        -0.95089
H         34.46138        41.85705        -1.39487
O         36.35626        33.46715        -1.99791
H         37.22729        32.95063        -1.98902
O         41.16496        33.13220         3.72473
H         41.67141        33.75272         4.29636
