         324
 CSIRO Nanostructure Databank - Neutral Graphene Oxide Data Set
C          1.07520         2.30722        -0.62763
C          1.09410         3.66572        -0.22749
C          2.22008         1.56943        -0.81633
C          2.29502         4.37425        -0.05165
C          1.22209         6.62327         0.37316
C          1.33414         7.90412         0.85549
C          2.35224         5.76055         0.22266
C          2.54428         8.39634         1.57156
C          1.43117        10.61926         1.81731
C          1.35988        11.99724         1.68573
C          2.65264         9.87769         1.83335
C          2.51971        12.78404         1.49917
C          1.34560        14.97707         1.38525
C          1.35927        16.33930         1.14763
C          2.50577        14.17341         1.23036
C          2.54903        17.02980         0.77303
C          2.56167        18.44178         0.59036
C          3.52486         2.10364        -0.43494
C          3.56731         3.60505        -0.03714
C          4.77352         1.48714        -0.85013
C          4.85981         4.30472        -0.19914
C          3.66108         6.49471         0.24888
C          3.75750         7.48299         1.40643
C          4.91253         5.67720         0.09311
C          5.11278         7.96677         1.66394
C          3.85225        10.62326         1.88394
C          3.80798        12.09311         1.73061
C          5.16791        10.08894         2.07903
C          5.10953        12.77725         1.38947
C          3.71860        14.82587         0.68202
C          3.75595        16.29881         0.57376
C          5.05246        14.09094         0.69381
C          4.95095        16.95898         0.26053
C          3.73087        19.09650         0.27991
C          4.96487        18.38676         0.15255
C          6.01452         2.14717        -0.75510
C          6.05098         3.59595        -0.50742
C          7.20942         1.41180        -0.87020
C          7.27370         4.30656        -0.54442
C          6.14993         6.34692         0.21482
C          6.22261         7.61473         0.92783
C          7.35018         5.66462        -0.11447
C          7.52684         8.29763         1.12103
C          6.37175        10.64627         1.63541
C          6.38700        12.03648         1.26330
C          7.60816         9.83172         1.50263
C          7.57038        12.75040         1.09457
C          6.31654        14.82053         0.57588
C          6.21898        16.20788         0.09727
C          7.54780        14.19024         0.83761
C          7.51303        17.00713         0.05125
C          6.17834        19.10612         0.02640
C          7.43799        18.48416         0.08018
C          8.49676         2.05678        -1.07353
C          8.50143         3.62118        -0.96404
C          9.76647         1.36526        -0.84266
C          9.78331         4.25024        -0.64735
C          8.60315         6.37411        -0.05541
C          8.69615         7.72724         0.42337
C          9.79822         5.67187        -0.36336
C          9.90249         8.45614         0.34897
C          8.84609        10.55024         1.11940
C          8.83135        12.00653         1.55673
C          9.97980         9.85893         0.73034
C         10.12695        12.79591         1.31315
C          8.76879        14.96617         0.80969
C          8.76120        16.34488         0.48456
C         10.06356        14.28888         1.10871
C          9.92781        17.15523         0.44948
C          8.63515        19.21396         0.09689
C          9.89170        18.55357         0.15470
C         10.96234         2.05083        -0.69340
C         10.94322         3.49675        -0.58759
C         12.23894         1.35348        -0.61234
C         12.18056         4.19860        -0.21455
C         11.01550         6.37148        -0.42408
C         11.06616         7.80214        -0.22217
C         12.23681         5.63909        -0.49481
C         12.23429         8.47098        -0.55271
C         11.30720        10.55081         0.63576
C         11.38729        12.05378         0.88754
C         12.42722         9.87525        -0.14469
C         12.53648        12.82758         0.27190
C         11.33351        15.03433         0.78005
C         11.25023        16.52421         0.55244
C         12.45424        14.31386         0.14539
C         12.37581        17.21562        -0.09163
C         11.10060        19.29030        -0.06451
C         12.33573        18.64813        -0.24438
C         13.44638         1.99180        -0.42894
C         13.47420         3.43963        -0.13731
C         14.73146         1.33201        -0.42794
C         14.72607         4.19856        -0.28500
C         13.44920         6.28615        -0.68506
C         13.33792         7.69667        -1.24447
C         14.68105         5.57824        -0.51701
C         14.68657         8.40883        -1.33010
C         13.46219        10.67755        -0.89797
C         13.48582        12.15643        -0.66853
C         14.67185         9.90458        -1.49273
C         14.23528        12.95680        -1.47065
C         13.43439        15.04458        -0.47158
C         13.48144        16.48540        -0.47171
C         14.44190        14.42653        -1.39017
C         14.73592        17.13768        -0.79330
C         13.55777        19.30737        -0.57268
C         14.75396        18.59701        -0.76673
C         15.92016         2.01180        -0.30267
C         15.97075         3.47345        -0.26175
C         17.19137         1.20576        -0.10753
C         17.18663         4.16112        -0.25035
C         15.92544         6.35658        -0.37677
C         15.97126         7.72409        -0.97182
C         17.22554         5.63033        -0.11656
C         17.25129         8.48012        -0.91236
C         16.01085        10.52408        -1.66728
C         16.08630        11.88696        -2.01827
C         17.23085         9.84751        -1.30778
C         17.19050        12.71140        -1.77381
C         15.86565        14.90160        -1.01394
C         15.89900        16.39766        -0.93316
C         17.14993        14.12529        -1.29867
C         17.19521        17.08980        -0.81313
C         15.99856        19.26412        -0.94457
C         17.21408        18.56732        -0.96567
C         18.45936         1.94178        -0.51573
C         18.43802         3.44854        -0.55053
C         19.75709         1.27551        -0.32589
C         19.71817         4.19649        -0.53092
C         18.55242         6.39370        -0.18666
C         18.47319         7.79099        -0.79314
C         19.72307         5.54797        -0.63420
C         19.68602         8.48059        -1.02071
C         18.46430        10.54837        -1.42362
C         18.46907        11.97886        -1.77119
C         19.69410         9.87576        -1.26900
C         19.75260        12.75027        -1.71503
C         18.45508        14.86562        -1.31935
C         18.47855        16.31705        -0.96389
C         19.64199        14.22289        -1.52720
C         19.72978        17.08779        -1.20136
C         18.45608        19.22886        -1.04574
C         19.69383        18.54909        -1.11455
C         20.96121         1.96556        -0.32751
C         20.99434         3.46966        -0.17247
C         22.19372         1.29586        -0.20405
C         22.27442         4.12891        -0.65187
C         20.97854         6.25298        -0.98886
C         20.95261         7.72670        -1.20890
C         22.27988         5.55655        -0.83242
C         22.27250         8.49181        -1.30663
C         20.95170        10.61866        -1.18818
C         20.96270        12.03222        -1.24101
C         22.16358         9.94023        -0.89904
C         22.13935        12.73505        -0.93040
C         20.92626        14.95685        -1.52520
C         20.90729        16.42782        -1.37956
C         22.17632        14.19501        -1.17113
C         22.22579        17.14745        -1.55383
C         20.90975        19.25682        -1.08595
C         22.16572        18.60509        -1.15341
C         23.44087         1.98820        -0.22637
C         23.45661         3.40888        -0.58909
C         24.61231         1.30781         0.06956
C         24.74274         4.08630        -0.83490
C         23.45568         6.30410        -0.79195
C         23.45663         7.74633        -0.71897
C         24.75527         5.61513        -0.81981
C         24.60981         8.43786        -0.39312
C         23.31918        10.64143        -0.53080
C         23.31499        12.06141        -0.51522
C         24.50570         9.88594         0.03146
C         24.53615        12.79660        -0.18417
C         23.30239        14.96004        -0.56147
C         23.32754        16.44732        -0.75823
C         24.54911        14.23363        -0.23398
C         24.63422        17.13192        -0.70958
C         23.35935        19.26342        -0.90235
C         24.62937        18.58073        -0.80314
C         25.94059         1.92783        -0.04559
C         26.02066         3.36010        -0.52027
C         27.05011         1.38078         0.75158
C         27.24351         4.17948        -0.20055
C         25.95882         6.35206        -0.36502
C         25.87250         7.76088        -0.18934
C         27.14850         5.65588        -0.06299
C         27.06281         8.51123         0.07484
C         25.80366        10.65481        -0.02357
C         25.72789        12.07629         0.06988
C         27.03030         9.97693         0.10983
C         26.92282        12.80187         0.52979
C         25.71166        14.99379        -0.04961
C         25.76938        16.40029        -0.37483
C         26.91728        14.33942         0.47459
C         27.08413        17.06496        -0.39846
C         25.79176        19.29774        -0.56597
C         27.08853        18.63837        -0.49573
C         28.18582         2.08844         1.02254
C         28.37965         3.48041         0.53869
C         29.22243         1.52450         1.86580
C         29.39354         4.31392         1.21353
C         28.28834         6.38189         0.37392
C         28.25804         7.80070         0.32214
C         29.43780         5.70624         0.96615
C         29.54740         8.50999         0.43856
C         28.24416        10.73402         0.30953
C         28.21974        12.11354         0.54069
C         29.54676        10.04741         0.36797
C         29.41912        12.87471         0.80338
C         28.21597        15.03703         0.47607
C         28.26596        16.41180         0.19008
C         29.40724        14.31489         0.79085
C         29.44991        17.16371         0.42646
C         28.25889        19.30853         0.03977
C         29.42774        18.60995         0.36434
C         30.26522         2.27160         2.31412
C         30.36889         3.68645         2.02250
C         31.42983         4.45572         2.54325
C         30.54926         6.45422         1.45599
C         30.67275         7.85863         1.11397
C         31.52923         5.80469         2.24013
C         31.80676         8.60790         1.39622
C         30.70746        10.75373         0.92975
C         30.64868        12.19653         1.02842
C         31.82759        10.01663         1.29175
C         31.81724        12.95006         1.29786
C         30.61920        15.04618         0.98459
C         30.62314        16.49367         0.88782
C         31.80532        14.33046         1.26984
C         31.75762        17.25892         1.23196
C         30.59723        19.32993         0.75336
C         31.73708        18.65894         1.16146
O         29.88134         9.22731        -0.79635
O          7.81600         8.76467         2.46267
O         15.48264         7.73554        -2.37151
O          3.59456         2.57874         0.97422
O         21.88498        14.52132        -2.57906
O         10.27861        13.70176         2.44812
O         16.50967        14.19415         0.07107
O         12.42842         9.91244         1.32749
O         22.86893        15.87910         0.51262
O         20.81707         6.81120        -2.36881
O          4.61091        12.81157         2.76532
O          4.22852        14.11968        -0.51910
O         16.43596         6.21056         0.99210
O         19.27432        12.27211        -3.01501
O         13.54351        10.32342        -2.31181
O          5.23248         8.84765         2.73507
O         18.33387         2.63374        -1.80377
O         28.41302         3.69378        -0.91346
O         12.55859        12.40117         1.67261
O          6.92825        16.43896        -1.17003
O         14.92146        12.43886        -2.57331
O         17.94538        16.60633         0.37692
O          2.92920         7.38980         2.58619
O         26.67778        13.61457         1.72941
O         11.65581        15.96511         1.86174
O         27.37496        17.75062        -1.63713
O         24.88830         4.84425        -2.06991
O         26.28748         2.27843        -1.45254
O          8.47122         2.95672        -2.25178
O         12.73157         3.79704         1.09219
O         14.18337        14.96272        -2.71894
H         14.43590        14.26302        -3.36337
O         12.88825         7.52174        -2.62256
H         13.69347         7.37044        -3.16774
O         18.93745         6.66036         1.20927
H         18.09657         6.81796         1.70276
O          3.65600         7.39694        -0.92361
H          3.61481         6.84075        -1.73043
O         21.03274         3.63369         1.29893
H         20.92847         4.58937         1.50045
O         24.21556         9.78699         1.48225
H         24.24823        10.69624         1.85150
O          8.66197        11.89823         2.99567
H          9.10935        12.67907         3.40113
O         17.29279         0.83008         1.27889
H         17.13749         1.62257         1.83288
O         22.61353         8.58075        -2.72161
H         22.21218         7.79123        -3.15928
O         22.58761        17.11746        -2.95668
H         22.46933        16.18576        -3.26523
H          0.10300         1.85436        -0.86972
H          0.13842         4.20345        -0.16468
H          2.17281         0.57466        -1.28182
H          0.23103         6.27076         0.04876
H          0.43984         8.54096         0.81984
H          0.48171        10.07633         1.91082
H          0.36824        12.46940         1.65062
H          0.41417        14.50908         1.73366
H          0.43771        16.92198         1.28883
H          1.62569        19.00454         0.71626
H          4.74531         0.46168        -1.24793
H          3.73790        20.18984         0.16328
H          7.16897         0.31449        -0.80079
H          6.13374        20.20499        -0.01296
H          9.74968         0.26909        -0.74459
H          8.60302        20.31016         0.01077
H         12.22932         0.26400        -0.77128
H         11.02923        20.37906        -0.20551
H         14.75089         0.23265        -0.48991
H         13.57586        20.40685        -0.61706
H         17.12218         0.25069        -0.68870
H         16.01160        20.36316        -1.00306
H         19.76384         0.18046        -0.21251
H         18.46391        20.32949        -1.05665
H         22.20462         0.19856        -0.12167
H         20.88568        20.34491        -0.91870
H         24.55552         0.25687         0.39090
H         23.34699        20.34901        -0.71695
H         26.92678         0.37364         1.17873
H         25.74269        20.38459        -0.40450
H         29.14034         0.46254         2.13986
H         28.21157        20.39305         0.21905
H         31.04168         1.81590         2.94549
H         32.19171         3.97277         3.17131
H         32.37878         6.37624         2.63673
H         32.70037         8.11822         1.80616
H         32.73773        10.52988         1.62985
H         32.76900        12.43683         1.48605
H         32.74833        14.86624         1.43834
H         32.67256        16.76798         1.58799
H         30.58207        20.42832         0.71519
H         32.63380        19.22561         1.44827
