         324
 CSIRO Nanostructure Databank - Neutral Graphene Oxide Data Set
C          1.48100         3.53191         1.68599
C          0.30760         4.21008         2.01638
C          0.83421         6.02634         0.47127
C          0.00238         5.45883         1.46237
C          0.65484         7.39965        -0.01814
C         -0.13584         8.39597         0.49668
C          1.11423        10.50183        -0.22117
C         -0.01775         9.79490         0.15108
C          1.04373        12.00624        -0.17993
C         -0.06993        12.76917        -0.73418
C          1.12453        14.92201        -0.53116
C         -0.05460        14.14760        -0.76163
C          1.14262        16.43878        -0.32536
C         -0.19959        17.15139        -0.40033
C          0.67214        19.44685        -0.64753
C         -0.39892        18.48938        -0.34259
C          1.13653        20.53699         0.05316
C          0.26399        21.05233         1.09823
C          1.53382        23.14409         1.18794
C          0.39714        22.29788         1.58892
C          1.48849        24.62753         1.45987
C          0.30396        25.33678         1.99729
C          1.45692        27.49927         1.76859
C          0.30123        26.68986         2.10438
C          1.47978        28.89949         2.01334
C          3.68485         3.47913         0.52184
C          2.38708         4.08155         0.74412
C          3.85511         6.34232        -0.42053
C          1.96735         5.26633         0.08432
C          3.73100         7.77155        -0.28661
C          2.57444         8.48067        -0.55170
C          3.62194        10.65361        -0.16869
C          2.43654         9.89969        -0.31319
C          3.63959        12.08946        -0.13559
C          2.36064        12.81110        -0.07455
C          3.60813        14.91543        -0.48928
C          2.34796        14.24504        -0.39278
C          3.60015        16.31818        -0.95181
C          2.35022        17.07820        -0.99362
C          3.64601        19.21501        -1.18147
C          2.46939        18.40967        -1.35447
C          3.55945        20.63493        -0.86041
C          2.40155        21.24765        -0.25345
C          3.68951        23.34416        -0.06164
C          2.53025        22.57816         0.22358
C          3.64730        24.82675         0.07821
C          2.47249        25.48841         0.73305
C          3.77640        27.61156         0.94450
C          2.58575        26.89429         1.17385
C          3.80456        29.02350         1.24771
C          2.60231        29.64261         1.72409
C          6.13364         3.47825         0.22393
C          4.88092         4.15300         0.19830
C          6.19062         6.26893         0.54609
C          4.92010         5.60856         0.03521
C          6.20395         7.78529         0.35849
C          4.92320         8.52461         0.11368
C          6.09195        10.65241        -0.20120
C          4.90568         9.97761        -0.17091
C          6.16263        12.12677         0.06255
C          4.83566        12.81331        -0.18548
C          6.11227        14.97139        -0.26345
C          4.81594        14.23197        -0.32181
C          6.14118        16.44134        -0.56508
C          4.89494        17.08310        -1.05456
C          6.11934        19.24189        -1.10751
C          4.88836        18.55498        -1.05963
C          6.03748        20.67588        -1.35464
C          4.79201        21.36184        -0.91675
C          6.16566        23.46670        -0.42788
C          4.84504        22.72667        -0.58329
C          6.05763        24.96641        -0.65787
C          4.88082        25.62729        -0.05808
C          6.23756        27.61877         0.46952
C          4.92526        26.94438         0.37064
C          6.25027        29.14388         0.87243
C          4.96028        29.78528         1.04356
C          8.62821         3.45705        -0.15591
C          7.37035         4.16225        -0.02292
C          8.50011         6.31166        -0.69765
C          7.38392         5.56216        -0.03541
C          8.60767         7.78400        -0.34186
C          7.44370         8.47130        -0.06305
C          8.59558        10.64113        -0.76151
C          7.33286         9.89039        -0.42700
C          8.60433        12.11487        -0.74034
C          7.37090        12.83538        -0.52026
C          8.54126        14.95214        -0.97238
C          7.36014        14.20883        -0.50047
C          8.63619        16.42205        -0.71589
C          7.39439        17.17694        -0.84605
C          8.65257        19.26853        -1.24838
C          7.38465        18.54877        -1.06759
C          8.64940        20.69612        -1.35833
C          7.39168        21.44577        -1.43833
C          8.61499        23.56461        -1.05362
C          7.39245        22.85643        -1.06339
C          8.61629        24.97490        -0.90876
C          7.35590        25.73168        -0.79773
C          8.61380        27.79882        -0.15030
C          7.42316        27.10125        -0.22592
C          8.64956        29.18535         0.29386
C          7.47417        29.87022         0.58794
C         11.09738         3.46424        -0.21785
C          9.83869         4.11932        -0.33559
C         11.11556         6.34878        -0.55486
C          9.83589         5.57326        -0.66645
C         11.10862         7.81304        -0.33638
C          9.86344         8.50416        -0.46040
C         11.03554        10.67183        -0.41101
C          9.85289         9.92415        -0.53349
C         11.07582        12.06156        -0.71094
C          9.82768        12.75982        -0.91904
C         11.11550        14.92313        -1.42060
C          9.81724        14.19809        -1.22305
C         11.15967        16.38979        -1.34027
C          9.94245        17.14340        -0.98718
C         11.14076        19.25612        -1.71873
C          9.87074        18.57334        -1.27102
C         11.12563        20.72015        -1.34783
C          9.88857        21.41899        -1.28584
C         11.11691        23.54397        -1.17224
C          9.88098        22.84980        -1.20814
C         11.13231        25.03016        -1.31677
C          9.83065        25.75278        -1.15099
C         11.15914        27.87213        -0.47072
C          9.84768        27.22974        -0.74739
C         11.12482        29.22608         0.08853
C          9.90608        29.85853         0.34853
C         13.54790         3.43003        -0.03982
C         12.33532         4.13345        -0.19566
C         13.60233         6.35764         0.21775
C         12.39627         5.61461        -0.31750
C         13.49644         7.85638         0.46695
C         12.28858         8.49792         0.06244
C         13.47065        10.81093         0.25554
C         12.20522         9.97793         0.14143
C         13.50963        12.16446        -0.31435
C         12.33374        12.76012        -0.77061
C         13.72816        14.87759        -1.42482
C         12.39406        14.12981        -1.35455
C         13.62750        16.36955        -1.16180
C         12.39685        17.08700        -1.29826
C         13.60114        19.23047        -1.08855
C         12.39995        18.52110        -1.29229
C         13.59024        20.67010        -1.09651
C         12.34902        21.40778        -1.19026
C         13.59063        23.55371        -0.80263
C         12.32844        22.83374        -1.08161
C         13.64792        25.05726        -0.82625
C         12.40393        25.82677        -1.18341
C         13.64166        28.07898        -0.72118
C         12.35401        27.24732        -0.72848
C         13.58049        29.24754         0.23337
C         12.33414        29.85619         0.45624
C         15.97012         3.27973         0.50313
C         14.78045         4.07738         0.23574
C         15.84890         6.05537         1.22947
C         14.74219         5.46923         0.59094
C         15.78792         8.20978         1.47696
C         14.62421         8.69393         0.80663
C         15.93506        10.78186         0.52232
C         14.71674        10.07887         0.46949
C         15.96226        12.18838         0.16645
C         14.78119        12.85407        -0.30277
C         16.05844        14.93428        -0.57044
C         14.84881        14.21716        -0.66176
C         16.08038        16.35617        -0.83675
C         14.83560        17.07333        -0.97377
C         16.07990        19.17444        -0.69444
C         14.84171        18.49956        -0.91282
C         16.00608        20.61757        -0.55624
C         14.81669        21.37872        -0.90735
C         16.12204        23.49032        -0.78375
C         14.84037        22.78416        -0.84770
C         16.21660        24.98942        -0.69401
C         14.96146        25.78606        -0.93200
C         16.12372        27.82095         0.11976
C         14.95945        27.26736        -0.63766
C         16.01048        29.14077         0.68194
C         14.75082        29.81727         0.71519
C         18.51198         3.44391         1.02443
C         17.24732         3.81816         0.44046
C         18.31976         6.55169         1.34451
C         17.16966         5.90982         0.82952
C         18.27303         7.98951         1.89138
C         17.05479         8.75594         1.38430
C         18.38586        10.77567         0.95744
C         17.14745        10.10226         0.90165
C         18.40076        12.22654         0.71690
C         17.18204        12.90088         0.22929
C         18.51761        14.90693        -0.42133
C         17.24962        14.26297        -0.15869
C         18.52040        16.22026        -0.98101
C         17.30925        17.04532        -0.90822
C         18.62062        19.21002        -0.82899
C         17.33305        18.47632        -0.79815
C         18.83393        20.37912        -0.06318
C         17.01718        21.31953         0.07875
C         18.51610        23.37086         0.29225
C         17.31066        22.70371        -0.24515
C         18.35614        24.77881         0.81127
C         17.38377        25.63864        -0.00368
C         18.37308        27.63571         1.12247
C         17.26048        27.05978         0.42793
C         18.31257        29.00976         1.51243
C         17.10945        29.72423         1.32447
C         19.53056         4.34443         1.27971
C         20.72331         6.50648         1.65145
C         19.51159         5.79641         1.35471
C         20.75650         7.89052         1.66431
C         19.58045         8.68863         1.56371
C         20.85139        10.72528         0.88151
C         19.60313        10.05945         1.21009
C         20.92367        12.00116         0.42514
C         19.75485        12.89628         0.42431
C         20.87518        14.63354        -1.00346
C         19.73236        14.16165        -0.34573
C         20.83220        15.82924        -1.72253
C         19.67634        16.61313        -1.68667
C         20.76852        19.78883        -1.90483
C         19.68444        18.92082        -1.72229
C         20.83065        21.01548        -1.23395
C         19.84304        21.34216        -0.29520
C         20.91406        23.41642         0.67214
C         19.73647        22.70691         0.28513
C         20.86020        24.76631         1.02189
C         19.66189        25.49205         1.04285
C         20.68406        27.56794         1.94102
C         19.58729        26.89627         1.36719
C         20.60903        28.91895         2.31002
C         19.44004        29.63430         2.11621
O         13.51493        24.39883         0.47247
O         17.37386        25.47748        -1.44028
O          1.53546        12.50622         1.10648
O          1.34644        19.10047        -1.82297
O         19.67433        17.76280        -2.49759
O          1.48370         7.78615        -1.09418
O         15.59635         7.02935         2.21142
O          9.48860        16.78569         0.41367
O          6.57202        21.12662        -2.63628
O          8.90969        14.56008        -2.33421
O         11.87818        25.49603        -2.50151
O         12.58182        10.60545         1.41898
O          6.11662        15.96098         0.83467
O         13.41421         6.10710        -1.24392
O          6.49316        28.04147         1.82958
O          7.76843        10.09158        -1.84672
O         17.89061        20.65533         0.95451
O          6.44056        25.49301        -1.95351
O          9.64695        26.82200        -2.13724
O          2.18227        23.73041         2.39819
O         17.36187         5.04324        -0.25911
O          5.46667         8.37491         1.50138
O         19.11961        13.00049         1.73652
O         11.71970        14.30067        -2.64238
O          2.50163        25.35787        -0.72401
O         10.58520         5.91853        -1.87869
O         15.18336        26.73143        -2.00198
O          2.75278         5.67717        -0.99997
O         17.11311        22.93182        -1.70001
O          4.35063        16.44453        -2.24825
O         17.68198        24.66241         2.12104
H         18.29722        24.20488         2.73291
O          8.08042         6.34619        -2.10333
H          8.91293         6.40521        -2.63282
O          6.27339         6.01159         1.98127
H          5.78549         6.74750         2.42111
O          6.38442        12.21750         1.51788
H          5.61521        11.80577         1.96729
O         11.15578        19.20854        -3.19776
H         10.37799        19.71400        -3.51798
O         18.17993         7.90185         3.34316
H         17.29867         7.51844         3.54857
O         13.64875        28.72845        -2.02363
H         13.96949        28.06119        -2.67442
O          1.47906        16.57400         1.11379
H          1.00620        15.86691         1.60326
O          6.43936        23.39783         1.02432
H          6.40307        22.45867         1.30490
O         14.18036        14.80574        -2.81723
H         13.36231        14.82979        -3.37094
H          1.72913         2.58728         2.19041
H         -0.37270         3.77608         2.76190
H         -0.90062         5.99284         1.79000
H         -0.90943         8.14291         1.23718
H         -0.91068        10.40200         0.37628
H         -0.93184        12.22737        -1.15083
H         -0.96345        14.66797        -1.09956
H         -1.07150        16.51524        -0.17494
H         -1.41352        18.86569        -0.12777
H         -0.57489        20.41721         1.41793
H         -0.28623        22.67290         2.36232
H         -0.56716        24.75490         2.32995
H         -0.58296        27.20344         2.51073
H          0.58563        29.38561         2.42949
H          3.78707         2.42867         0.84232
H          2.61129        30.72537         1.91488
H          6.14875         2.38500         0.35012
H          4.90964        30.88336         1.07943
H          8.63629         2.37151         0.02557
H          7.48721        30.96514         0.68780
H         11.09746         2.37286        -0.07235
H          9.92121        30.89378         0.72076
H         13.52796         2.33050        -0.07954
H         12.29202        30.80739         1.00851
H         15.82972         2.23936         0.83375
H         14.69290        30.76923         1.26528
H         18.69307         2.38329         1.25890
H         17.02450        30.75039         1.71130
H         20.48203         3.90000         1.61910
H         21.66298         5.94258         1.74673
H         21.74066         8.37906         1.70773
H         21.77885        10.13755         0.91496
H         21.89376        12.39004         0.08402
H         21.80663        14.05255        -0.98789
H         21.70126        16.16718        -2.30073
H         21.53918        19.52242        -2.63914
H         21.63586        21.72710        -1.46110
H         21.88407        22.90210         0.64485
H         21.80729        25.27912         1.24305
H         21.61756        27.02264         2.13524
H         21.48292        29.40279         2.76795
H         19.37208        30.68979         2.41518
