         244
 CSIRO Nanostructure Databank - Neutral Graphene Oxide Data Set
C          1.47462         2.00281         0.83794
C          1.38645         3.44448         0.79197
C          2.65239         1.36245         1.03197
C          2.51515         4.22661         0.69938
C          1.32652         6.41369         0.73255
C          1.31629         7.80641         0.61666
C          2.48543         5.65799         0.49951
C          2.40095         8.53808         0.09327
C          1.36541        10.71974         0.62448
C          1.36340        12.09792         0.62188
C          2.40883         9.94677         0.04828
C          2.48284        12.84852         0.13297
C          1.28619        15.05234         0.34490
C          1.26750        16.43928         0.26672
C          2.46751        14.31257         0.10802
C          2.44563        17.16701        -0.01311
C          2.46801        18.60096        -0.07730
C          3.89088         2.17222         1.33974
C          3.84172         3.50517         0.55792
C          5.17978         1.46691         1.01643
C          5.06600         4.37359         0.85694
C          3.69903         6.35743         0.10731
C          3.56005         7.76111        -0.50661
C          4.91507         5.73448         0.20538
C          4.84589         8.56351        -0.47662
C          3.51555        10.67299        -0.68765
C          3.58215        12.15261        -0.36207
C          4.85707         9.94632        -0.54645
C          4.76769        12.88273        -0.79229
C          3.65857        15.02217        -0.20379
C          3.65645        16.44930        -0.22584
C          4.86921        14.32278        -0.52600
C          4.87650        17.15615        -0.42894
C          3.63823        19.28166        -0.28289
C          4.88920        18.58562        -0.42060
C          6.32761         2.16264         0.62035
C          6.31652         3.60345         0.45066
C          7.54644         1.46439         0.38640
C          7.46139         4.25425         0.02646
C          6.16277         6.46933        -0.03928
C          6.10255         7.79553        -0.78210
C          7.45620         5.72995        -0.09760
C          7.37999         8.56419        -0.55976
C          6.09449        10.66071        -0.63775
C          6.10518        12.09665        -0.91980
C          7.35519         9.97650        -0.50927
C          7.34815        12.87670        -0.78836
C          6.09497        14.99145        -0.62826
C          6.10404        16.43818        -0.52382
C          7.33911        14.25236        -0.75652
C          7.31505        17.14699        -0.46855
C          6.11586        19.27014        -0.49895
C          7.33952        18.56521        -0.46689
C          8.71439         2.13040        -0.03091
C          8.67627         3.54458        -0.26169
C          9.95863         1.44311        -0.15516
C          9.85957         4.22448        -0.68896
C          8.55540         6.39267        -0.91716
C          8.60715         7.87431        -0.61250
C          9.87258         5.68029        -0.75849
C          9.81782         8.56498        -0.48862
C          8.59341        10.67993        -0.50052
C          8.62062        12.11668        -0.78406
C          9.82254         9.98346        -0.36245
C          9.94311        12.84125        -0.59686
C          8.64575        15.03143        -0.88534
C          8.54038        16.35288        -0.13030
C          9.89001        14.29513        -0.40074
C          9.82658        17.13289        -0.16756
C          8.60566        19.25592        -0.43720
C          9.81279        18.58239        -0.29587
C         11.11269         2.11239        -0.54691
C         11.04898         3.49759        -0.89783
C         12.39435         1.42105        -0.58993
C         12.27182         4.18806        -1.36069
C         11.04769         6.37055        -0.76760
C         11.13305         7.87785        -0.77081
C         12.30624         5.68459        -1.12010
C         12.24870         8.35570         0.16078
C         11.05126        10.67795        -0.02878
C         11.09995        12.08537        -0.06308
C         12.17798         9.85346         0.52447
C         12.22070        12.86560         0.36311
C         11.00473        14.98667         0.02084
C         10.98722        16.44292         0.05734
C         12.23366        14.27715         0.36910
C         12.19777        17.20446         0.51487
C         11.08144        19.25132        -0.37225
C         12.27266        18.57974        -0.11072
C         13.54064         2.01743        -0.98716
C         13.57834         3.41598        -1.55018
C         14.80824         1.23059        -1.19547
C         14.83168         4.18371        -1.11946
C         13.57021         6.31284        -0.68768
C         13.49232         7.50230         0.08302
C         14.79509         5.59212        -0.77532
C         14.68594         7.89071         0.71689
C         13.33898        10.67637         1.05048
C         13.39070        12.15347         0.90365
C         14.66792        10.06701         1.21580
C         14.71780        12.82238         0.91956
C         13.43679        15.00316         0.66186
C         13.47904        16.40810         0.51062
C         14.62112        14.27676         1.31359
C         14.68819        17.12736         0.46819
C         13.53698        19.18780        -0.25945
C         14.72580        18.49456         0.03748
C         16.06362         2.05056        -0.98441
C         16.03227         3.49788        -1.07810
C         17.21469         1.39420        -0.63951
C         17.34727         4.24807        -1.19495
C         16.01511         6.24874        -0.39872
C         15.95532         7.46765         0.31832
C         17.30586         5.65347        -0.60957
C         17.11386         8.46193         0.16783
C         15.86460        10.64536         0.91208
C         15.88853        12.11320         0.90699
C         17.12627         9.78383         1.02592
C         17.18300        12.78221         1.34324
C         15.96035        15.01055         1.21251
C         15.96088        16.46859         0.80860
C         17.21593        14.25918         1.02696
C         17.23230        17.07460         0.38778
C         15.99444        19.12992        -0.17189
C         17.20075        18.46320        -0.03817
C         18.46177         2.09753        -0.43370
C         18.52438         3.45959        -0.67519
C         19.64480         1.38221        -0.03129
C         19.80676         4.14691        -0.58814
C         18.46963         6.36411        -0.28380
C         18.45432         7.72979         0.19761
C         19.78744         5.69935        -0.41957
C         19.64647         8.38236         0.52243
C         18.40578        10.57524         0.61196
C         18.44036        12.05271         0.95809
C         19.66627         9.81187         1.07265
C         19.63486        12.73831         0.76129
C         18.40576        14.92934         0.76612
C         18.41006        16.36034         0.49386
C         19.66058        14.18899         0.65860
C         19.72129        17.11467         0.46822
C         18.44439        19.10046        -0.38162
C         19.64142        18.44259        -0.25796
C         20.84687         2.02205         0.14256
C         20.97680         3.42498        -0.09218
C         22.14469         4.13971         0.19674
C         20.98557         6.31144         0.15152
C         20.91635         7.70606         0.49404
C         22.14896         5.53902         0.29066
C         22.10775         8.45298         0.66652
C         20.91702        10.58050         0.68798
C         20.87680        11.98975         0.57586
C         22.11503         9.84313         0.66605
C         22.06892        12.72121         0.31015
C         20.85886        14.84696         0.31730
C         20.90071        16.27493         0.04727
C         22.06079        14.08593         0.18444
C         21.99470        16.89273        -0.50831
C         20.86361        19.03959        -0.72516
C         22.00312        18.29114        -0.82420
O         16.04417        16.05698         2.24341
O         12.15839         5.13140        -2.47998
O          7.07069         6.43737         1.13793
O          9.49220        12.44017        -1.94606
O          5.29826        12.46725        -2.09760
O         11.75749         8.78230         1.45066
O          8.23795         6.23678        -2.30261
O         13.02192        11.52205         2.20908
O         20.04307         5.06792        -1.71827
O         14.62344         8.79661         1.76447
O         18.46989        10.60768        -0.84104
H         19.30320        11.06181        -1.08974
O          8.83895        15.28830        -2.29474
H          8.98997        14.41454        -2.72350
O          3.96646         3.18091        -0.85109
H          3.15757         2.69868        -1.12380
O         17.20838         9.38234         2.41219
H         16.91159        10.13854         2.96464
O         19.75974         9.71942         2.51286
H         18.92695         9.28871         2.82962
O         13.75034         3.21320        -2.98271
H         13.40182         4.02568        -3.42011
O         16.86059         8.88082        -1.20195
H         17.07443         8.13157        -1.79676
O          3.25111         7.54433        -1.91190
H          4.11527         7.41499        -2.37862
O         11.97179        17.45753         1.95405
H         11.16692        18.01404         2.02545
O         14.25054        14.25834         2.71888
H         14.55010        15.11798         3.09650
O          3.87556         2.38582         2.77719
H          4.47936         3.14467         2.97112
O          8.35766        15.95396         1.27216
H          8.26869        16.76964         1.80817
O          3.19242        10.60905        -2.11115
H          3.89730        11.11599        -2.58012
O         19.98055        17.45318         1.88059
H         19.20031        17.94952         2.20876
O         17.13289        12.67273         2.82199
H         17.76067        13.33112         3.19017
O          5.18336         4.64470         2.28542
H          5.93548         5.28082         2.37475
O         17.55797         4.41857        -2.63992
H         18.49153         4.72957        -2.74444
O          5.98189         7.48626        -2.20303
H          6.83467         6.98544        -2.47316
O         14.82703         0.04209        -0.40260
H         14.83954         0.29999         0.54152
O         11.53799         8.28301        -2.10868
H         10.93849         7.83856        -2.74702
H          0.54582         1.42744         0.70860
H          0.38479         3.89731         0.76867
H          2.69668         0.26426         1.08323
H          0.41669         5.91462         1.09429
H          0.40694         8.33242         0.93918
H          0.51358        10.20929         1.09468
H          0.50393        12.62494         1.05676
H          0.34860        14.52685         0.57131
H          0.32641        16.98197         0.43676
H          1.52396        19.14954         0.05521
H          5.24862         0.38130         1.19168
H          3.64139        20.38117        -0.31199
H          7.57604         0.37660         0.55055
H          6.12462        20.37036        -0.50246
H         10.00517         0.37149         0.08835
H          8.60619        20.35184        -0.53562
H         12.41856         0.36294        -0.28520
H         11.10738        20.30688        -0.68361
H         14.80740         0.89852        -2.27076
H         13.59847        20.21888        -0.63954
H         17.19429         0.30267        -0.50593
H         15.99943        20.17736        -0.50914
H         19.56595         0.30023         0.14620
H         18.41533        20.11463        -0.80903
H         21.73164         1.45938         0.47400
H         23.05196         3.58711         0.48080
H         23.07658         6.01751         0.63294
H         23.07527         7.93421         0.65196
H         23.08798        10.35084         0.61609
H         23.02182        12.18986         0.19199
H         23.00992        14.59784        -0.01776
H         22.89294        16.31832        -0.77300
H         20.84461        20.08408        -1.06985
H         22.92653        18.73542        -1.22087
