         420
 CSIRO Nanostructure Databank - Neutral Graphene Oxide Data Set
C         28.21452        27.37072         1.52030
C         28.24460        28.79272         1.64692
C         27.09542        29.51220         2.05448
C         28.26983        31.62360         1.72912
C         27.09674        30.89325         2.04964
C         28.23198        33.08151         1.55443
C         26.99266        33.77213         1.56840
C         28.10096        35.89672         1.13386
C         26.93177        35.13721         1.37445
C         28.05024        37.33488         0.98930
C         26.82861        38.05392         1.02375
C         27.99563        40.18102         0.77474
C         26.80180        39.43031         0.90620
C         27.98575        41.62957         0.71205
C         26.77947        42.36044         0.58081
C         27.98961        44.45698         0.75737
C         26.78312        43.74290         0.56310
C         28.00431        45.90485         0.75436
C         30.50525        27.35890         0.67535
C         29.30678        26.68150         1.05855
C         30.57728        28.77487         0.82053
C         29.44110        29.50082         1.34205
C         30.73952        31.64251         1.31367
C         29.46370        30.91429         1.48841
C         30.75352        33.16261         1.44495
C         29.39996        33.80884         1.27596
C         30.55759        35.94991         0.78494
C         29.35222        35.21468         1.06920
C         30.50337        37.35789         0.66951
C         29.25744        38.06142         0.81467
C         30.46552        40.21784         0.62004
C         29.23273        39.48543         0.72949
C         30.47096        41.62336         0.76855
C         29.21519        42.34069         0.82626
C         30.40947        44.51516         1.38943
C         29.19725        43.75422         0.90521
C         30.45555        45.95858         0.90034
C         29.17267        46.60786         0.77870
C         32.81977        24.51589        -0.17149
C         31.65317        25.22384         0.07846
C         32.81347        27.36408        -0.20869
C         31.64482        26.65236         0.15815
C         32.86602        28.77476        -0.11358
C         31.73538        29.46405         0.38526
C         32.84035        31.66798        -0.23080
C         31.86401        30.91404         0.64279
C         32.96961        33.13076         0.14366
C         31.85395        33.82958         0.64130
C         32.91792        35.93225        -0.00039
C         31.79908        35.24192         0.53184
C         32.81347        37.37896        -0.22515
C         31.66712        38.10442         0.30307
C         32.92074        40.24888         0.23296
C         31.68513        39.51551         0.35700
C         32.93103        41.65810         0.53359
C         31.71388        42.32232         0.81805
C         32.98855        44.52308         0.95291
C         31.71986        43.74780         1.20673
C         32.94095        45.98565         0.75352
C         31.65202        46.65829         0.76006
C         32.81380        48.79380         0.36381
C         31.67205        48.09338         0.50895
C         35.31379        23.00578        -0.46743
C         35.27625        24.45789        -0.46850
C         34.02995        25.16129        -0.47086
C         35.27386        27.36620        -0.74117
C         33.96442        26.62475        -0.84301
C         35.31226        28.76141        -0.65739
C         34.10171        29.50280        -0.39932
C         35.32946        31.62177        -0.64551
C         34.14094        30.91157        -0.38159
C         35.25417        33.09698        -0.97847
C         34.10704        33.83460        -0.30814
C         35.27635        35.97291        -0.96652
C         34.09822        35.23973        -0.33966
C         35.36681        37.42537        -0.54822
C         34.11728        38.17620        -0.48047
C         35.38845        40.24781        -0.02011
C         34.12823        39.58068        -0.07302
C         35.40872        41.66245         0.20311
C         34.18065        42.37757         0.45767
C         35.37667        44.53848         0.34858
C         34.19216        43.79166         0.53034
C         35.36363        45.95676         0.28968
C         34.11607        46.66243         0.46697
C         35.23727        48.75099        -0.41065
C         34.17586        48.17231         0.50882
C         35.07202        49.97568        -1.02149
C         37.75024        22.95957        -0.15943
C         36.47275        22.30106        -0.46224
C         37.74637        24.50019        -0.25704
C         36.48536        25.16151        -0.58352
C         37.84031        27.33569        -0.90443
C         36.49430        26.58686        -0.94819
C         37.80105        28.80259        -0.76928
C         36.57003        29.48919        -0.72866
C         37.80880        31.63859        -0.80354
C         36.56002        30.92489        -0.73905
C         37.80239        33.10503        -0.80068
C         36.57096        33.82811        -0.79757
C         37.79830        35.95344        -0.72814
C         36.57372        35.22367        -0.77591
C         37.82156        37.38233        -0.61979
C         36.57570        38.10075        -0.44481
C         37.84508        40.23673        -0.30636
C         36.60213        39.53560        -0.24287
C         37.85708        41.66158        -0.12848
C         36.64494        42.34261         0.16633
C         37.91369        44.56325         0.12612
C         36.64794        43.79846         0.37600
C         37.76074        45.94345        -0.41477
C         36.52634        46.68108        -0.14718
C         37.65922        48.70805        -1.09041
C         36.48275        48.03644        -0.53742
C         37.37466        49.95937        -1.75036
C         36.13126        50.54684        -1.76915
C         40.32145        20.21844        -0.53177
C         39.10909        20.88232        -0.51187
C         40.25040        23.03411        -0.19904
C         39.05179        22.27992        -0.32244
C         40.22679        24.47274        -0.15681
C         39.04495        25.20053        -0.36387
C         40.27456        27.35584        -0.40861
C         39.05521        26.61756        -0.50907
C         40.27720        28.77517        -0.62269
C         39.03683        29.50591        -0.72554
C         40.32104        31.68055        -0.61249
C         39.01608        30.93092        -0.76763
C         40.26773        33.06815        -1.26317
C         39.01357        33.81900        -0.86440
C         40.26330        35.96135        -0.95347
C         39.02527        35.23611        -0.83504
C         40.25677        37.36796        -0.93273
C         39.04279        38.09019        -0.70608
C         40.28664        40.25929        -0.68356
C         39.06222        39.53489        -0.57867
C         40.29804        41.68582        -0.55548
C         39.08826        42.38764        -0.29742
C         40.30090        44.53280        -0.46805
C         39.12468        43.81243        -0.25747
C         40.28857        46.03433        -0.27795
C         39.02519        46.70528        -0.77858
C         40.28867        48.82434        -1.41242
C         38.95721        48.15801        -0.97960
C         40.37042        50.33745        -1.24588
C         39.37468        51.14572        -1.78824
C         40.42237        53.18283        -1.06012
C         39.36387        52.55316        -1.68324
C         42.78703        20.24663        -0.40715
C         41.53333        20.93721        -0.37718
C         42.75846        23.07034        -0.14413
C         41.50909        22.34557        -0.21926
C         42.76120        24.47599        -0.05042
C         41.47944        25.21621         0.22799
C         42.72730        27.34947        -0.26747
C         41.49606        26.66041        -0.21026
C         42.72132        28.77467        -0.44926
C         41.52544        29.46167        -0.62961
C         42.81212        31.65842        -0.84104
C         41.53286        30.89363        -1.12012
C         42.80071        33.08921        -0.90747
C         41.54901        33.82853        -0.99804
C         42.76410        35.96772        -0.86093
C         41.50712        35.20906        -0.97278
C         42.79483        37.38530        -1.32646
C         41.49215        38.13434        -1.23084
C         42.73244        40.28381        -0.95496
C         41.52269        39.59062        -0.96504
C         42.75727        41.70344        -0.77225
C         41.52685        42.41060        -0.65537
C         42.76522        44.56972        -0.62893
C         41.53307        43.84114        -0.60533
C         42.77195        46.00819        -0.61681
C         41.55171        46.73729        -0.69591
C         42.76464        48.84061        -0.69343
C         41.53910        48.12536        -0.86979
C         42.76112        50.27509        -0.55451
C         41.54157        50.99971        -0.77134
C         42.72499        53.08092        -0.18983
C         41.54672        52.42250        -0.65108
C         43.96982        20.92892        -0.31238
C         45.23625        23.06880        -0.11462
C         43.99935        22.35428        -0.19432
C         45.23954        24.49081        -0.12782
C         43.98145        25.20251        -0.11432
C         45.22678        27.30561        -0.51362
C         43.96188        26.61669        -0.21717
C         45.23736        28.80770        -0.61768
C         43.99302        29.53925        -0.17697
C         45.26953        31.65837        -0.62398
C         44.00699        30.98087        -0.62293
C         45.27882        33.06996        -0.80782
C         44.03865        33.76293        -0.84742
C         45.23217        35.95225        -1.42090
C         44.05992        35.23096        -0.79314
C         45.24768        37.42056        -1.02626
C         44.07575        38.10492        -1.12701
C         45.19920        40.26048        -0.54440
C         44.04444        39.60550        -1.29763
C         45.23513        41.74279        -0.73010
C         43.99255        42.43428        -0.72517
C         45.23861        44.57382        -0.63355
C         43.99463        43.86057        -0.67171
C         45.24345        45.99508        -0.54158
C         44.00572        46.71214        -0.58400
C         45.22211        48.84695        -0.30789
C         43.99032        48.13651        -0.52184
C         45.20459        50.25879        -0.14219
C         43.94693        50.97107        -0.22450
C         43.88636        52.37945         0.00676
C         47.67640        23.05788         0.08505
C         46.49290        22.38217        -0.02002
C         47.72247        24.49057         0.06351
C         46.48032        25.20437        -0.08793
C         47.69180        27.36194        -0.10724
C         46.49989        26.61686        -0.24603
C         47.67677        28.79315        -0.16197
C         46.50946        29.52024        -0.39179
C         47.75568        31.66896        -0.50355
C         46.50946        30.95460        -0.45511
C         47.74341        33.07748        -0.79172
C         46.53524        33.76535        -0.92485
C         47.83728        35.97625        -1.03732
C         46.55814        35.20758        -1.27695
C         47.80366        37.41022        -0.74873
C         46.48342        38.08060        -0.43602
C         47.69131        40.23074        -0.66346
C         46.52021        39.55760        -0.71413
C         47.70969        41.68888        -0.91449
C         46.45609        42.44501        -0.74372
C         47.72054        44.58190        -0.61064
C         46.47199        43.86098        -0.68725
C         47.70663        46.00458        -0.41999
C         46.47293        46.70454        -0.39669
C         47.67143        48.83191         0.02259
C         46.46027        48.13546        -0.23731
C         47.62687        50.23936         0.15443
C         46.43262        50.93165         0.07036
C         50.22517        24.54682         0.22317
C         48.93168        25.20204         0.20350
C         50.10197        27.33844         0.45911
C         48.92641        26.64797         0.20665
C         50.15340        28.77784         0.12447
C         48.88588        29.57226         0.29968
C         50.23723        31.62392        -0.26678
C         48.98065        30.97694        -0.25852
C         50.33819        33.03576        -0.68427
C         49.03216        33.79895        -0.95423
C         50.27818        35.95019        -0.56050
C         49.08004        35.25119        -0.76271
C         50.27071        37.39129        -0.49298
C         48.99497        38.07018        -0.53849
C         50.24613        40.28318        -0.21347
C         48.95240        39.53194        -0.30294
C         50.26881        41.73528        -0.44630
C         49.02503        42.43765        -0.80647
C         50.18477        44.58861        -0.52569
C         48.94902        43.89012        -0.60730
C         50.14568        46.01659        -0.44130
C         48.94704        46.71578        -0.25649
C         49.94292        48.65460         0.96155
C         48.92557        48.10306         0.17561
C         51.36788        25.21641         0.50540
C         52.62155        27.40864         0.90792
C         51.31541        26.63580         1.01027
C         52.66246        28.77514         0.60455
C         51.45406        29.48952         0.14787
C         52.67261        31.66299         0.20655
C         51.44555        30.96733         0.09135
C         52.71694        33.08846         0.02398
C         51.54289        33.80422        -0.34770
C         52.72687        35.96708        -0.22149
C         51.53044        35.23281        -0.40455
C         52.72044        37.38334        -0.16315
C         51.48830        38.11208        -0.30305
C         52.72861        40.26593        -0.07927
C         51.52769        39.54814        -0.24925
C         52.70602        41.73367         0.07787
C         51.45962        42.44002        -0.28398
C         52.97891        44.78455         0.68255
C         51.39732        43.85438        -0.51364
C         52.67784        45.99892         1.34787
C         51.72360        46.93935         0.78305
C         51.11073        47.99320         1.43375
C         55.00922        27.45323         1.38756
C         53.81367        26.76297         1.31333
C         55.05638        28.84350         1.11982
C         53.86561        29.52304         0.73745
C         55.10137        31.65764         0.68359
C         53.88391        30.94904         0.52982
C         55.12987        33.08787         0.47761
C         53.95617        33.77945         0.15102
C         55.18843        35.97165         0.30860
C         54.03676        35.22297        -0.30510
C         55.13696        37.35270         0.44766
C         53.93451        38.10972         0.10850
C         55.18374        40.22603         0.49458
C         53.94215        39.51711         0.11719
C         55.04240        41.68130         0.96351
C         53.76082        42.38469         0.71825
C         54.44010        44.05280         2.45292
C         53.70575        43.73838         1.27581
C         54.19681        45.27749         3.11319
C         53.28283        46.19710         2.61464
C         56.26926        29.58358         1.24876
C         56.28698        30.93782         1.03477
C         56.35361        33.84021         0.63445
C         56.36589        35.20577         0.60753
C         56.27498        38.07556         0.97301
C         56.30200        39.42309         1.01294
C         55.89371        42.14319         2.07409
C         55.52039        43.18195         2.86019
O         37.67350        23.78771         1.04148
O         37.25328        26.86918        -2.17772
O         52.58213        44.57668        -0.65713
O         43.48917        35.80929         0.41712
O         42.07571        37.71656        -2.54628
O         38.35344        50.55796        -2.55697
O         49.86062        33.29390        -2.05076
O         31.89639        31.13073         2.09400
O         32.61829        44.06092         2.32871
O         55.67802        41.33728        -0.31871
O         44.96413        40.26257         0.86517
O         38.26252        45.97534        -1.79534
O         49.45324        39.94736         1.01908
O         51.34951        46.73451        -0.57018
O         50.87611        28.95676        -1.13734
O         33.18958        37.83278        -1.58206
O         48.46578        42.02633        -2.12749
O         37.50498        44.30983         1.49385
O         45.15546        28.03087        -1.83334
O         47.39101        35.55513        -2.43279
O         46.29892        37.96791         1.00909
H         45.74108        38.76770         1.26657
O         40.14832        32.90632        -2.69933
H         40.13253        33.79806        -3.10455
O         32.23561        31.69181        -1.56342
H         32.90267        32.09437        -2.16736
O         31.10046        33.45120         2.83813
H         31.75343        32.76321         3.10655
O         41.41921        25.28508         1.71898
H         40.50332        25.54314         1.96018
O         40.53864        31.85881         0.81117
H         39.79226        32.38258         1.17178
O         33.66422        26.61146        -2.30014
H         33.64734        27.54546        -2.60139
O         48.73149        29.71912         1.75455
H         47.85815        30.13326         1.92260
O         35.01127        35.96328        -2.41729
H         34.24234        36.57498        -2.55007
O         44.25962        39.82296        -2.72219
H         43.60297        39.26699        -3.20008
O         30.18820        44.63553         2.83144
H         31.08516        44.66422         3.24270
O         34.91988        33.14308        -2.40998
H         34.95746        34.09905        -2.67810
O         54.34060        35.14508        -1.75147
H         53.60356        34.65662        -2.17759
O         44.90910        35.92100        -2.84042
H         45.75956        36.02747        -3.32814
O         40.34335        48.56443        -2.84971
H         39.60462        49.07178        -3.25833
O         34.63908        48.51029         1.86443
H         34.03651        48.06882         2.49994
O         41.43193        30.76975        -2.55952
H         42.20334        30.25719        -2.87874
O         44.11339        29.59071         1.28716
H         43.33496        30.07745         1.63371
O         40.23274        46.25124         1.17634
H         40.98799        45.77702         1.58450
O         51.08861        26.53140         2.46971
H         50.23811        26.05963         2.59935
H         27.29224        26.83384         1.78513
H         26.18307        28.96101         2.32352
H         26.17245        31.42204         2.31551
H         26.05720        33.22762         1.74947
H         25.95185        35.63002         1.41950
H         25.87670        37.51998         1.14244
H         25.83141        39.94277         0.94543
H         25.82490        41.82973         0.46666
H         25.84249        44.29725         0.43415
H         27.04583        46.43517         0.65646
H         29.23996        25.58979         0.96578
H         29.12420        47.70030         0.67405
H         32.79468        23.42371        -0.05166
H         30.74767        24.65626         0.32755
H         32.74827        49.88552         0.25266
H         30.71834        48.63542         0.45554
H         34.37287        22.46287        -0.63164
H         34.12152        50.52059        -0.96294
H         36.44749        21.21820        -0.64677
H         35.97555        51.47412        -2.33449
H         40.35439        19.12714        -0.65777
H         38.18081        20.30397        -0.61125
H         40.44099        54.27639        -0.95150
H         38.52275        53.12123        -2.10065
H         42.78529        19.15283        -0.51931
H         42.70179        54.17037        -0.04361
H         44.90955        20.36312        -0.35283
H         44.78490        52.92089         0.32955
H         48.60770        22.48652         0.19537
H         46.51354        21.28500         0.00592
H         48.55736        50.80397         0.30377
H         46.45553        52.02507         0.16453
H         50.28392        23.48472        -0.05502
H         49.72616        49.61971         1.44469
H         52.33132        24.68706         0.47811
H         51.52202        48.33591         2.39527
H         55.92963        26.93474         1.69242
H         53.78798        25.69856         1.58467
H         54.74122        45.49853         4.04188
H         53.08485        47.12278         3.17244
H         57.19067        29.05452         1.53160
H         57.23810        31.47338         1.14856
H         57.29273        33.31499         0.84925
H         57.31185        35.71904         0.82628
H         57.15192        37.51942         1.32764
H         57.21308        39.94051         1.34072
H         56.80876        41.58563         2.31270
H         56.12406        43.46777         3.73359
