         576
 CSIRO Nanostructure Databank - Neutral Graphene Oxide Data Set
C          6.22398        19.05757         0.01162
C          6.20106        20.45895        -0.14668
C          4.98213        21.22174         0.06596
C          6.03334        23.29858        -0.71427
C          4.91281        22.56311        -0.17324
C          6.05201        24.67023        -0.85278
C          8.23973        14.62003        -1.00302
C          8.33827        16.13401        -1.27596
C          7.27058        16.89722        -0.53862
C          8.65236        18.94899        -0.54147
C          7.34693        18.26281        -0.38632
C          8.63801        20.47963        -0.63794
C          7.33372        21.13931        -0.65277
C          8.51041        23.28731        -1.48433
C          7.20900        22.51146        -1.12144
C          8.48777        24.72971        -1.29863
C          7.26613        25.41307        -1.10958
C          8.38825        27.62082        -0.86751
C          7.23191        26.83496        -0.95340
C          8.37571        29.01391        -0.63889
C         11.13481        10.47983        -0.76019
C         10.53386        11.70143        -0.30215
C          9.82622        12.53258        -1.33743
C         11.08104        14.70313        -0.17876
C          9.13034        13.65486        -1.14188
C         10.99658        16.02320        -0.90274
C          9.73759        16.78337        -1.20569
C         11.05999        18.96576        -1.05461
C          9.85440        18.26220        -1.03889
C         11.07623        20.43044        -1.03457
C          9.85851        21.13042        -1.11753
C         11.12947        23.33327        -1.21633
C          9.81963        22.54481        -1.47351
C         11.02468        24.76841        -0.94227
C          9.76762        25.47151        -1.28342
C         10.88980        27.63625        -0.48245
C          9.70397        26.96472        -1.04393
C         10.83236        29.04857        -0.28765
C          9.56972        29.76155        -0.45542
C         10.75187        31.93049        -0.19943
C          9.56316        31.16643        -0.37893
C         10.72999        33.32845        -0.09931
C         13.45245         6.11790        -0.53692
C         13.36373         7.52505        -0.11282
C         12.25843         8.23766        -0.43407
C         13.42330        10.33180         0.18779
C         12.02430         9.63917         0.09502
C         13.40467        11.76341        -0.00088
C         12.28917        12.46972        -0.17443
C         13.48105        14.62532        -0.02044
C         12.28735        13.89316        -0.63298
C         13.33684        16.13036         0.15605
C         12.31191        16.75802        -0.78317
C         13.55946        18.98348        -0.47378
C         12.36567        18.24593        -0.99968
C         13.63106        20.43827        -0.93481
C         12.30671        21.17657        -0.86791
C         13.41698        23.32230        -0.21059
C         12.29905        22.56857        -0.76738
C         13.30310        24.73597        -0.04550
C         12.12100        25.45604        -0.40980
C         13.23461        27.63573         0.14904
C         12.05737        26.91120        -0.22436
C         13.23167        29.05622         0.20889
C         12.00006        29.75765         0.03126
C         13.18999        31.88615         0.18743
C         12.00735        31.20759         0.02226
C         13.20130        33.32651        -0.11345
C         11.93743        34.09830         0.04708
C         13.22391        36.26525         0.48210
C         11.96929        35.46333         0.19395
C         13.33227        37.54056        -0.37543
C         15.84339         6.18134        -1.13634
C         14.56124         5.48996        -0.97991
C         15.70697         7.41180         1.07128
C         14.37626         8.16433         0.85823
C         15.74714        10.43585         1.03237
C         14.53281         9.63554         0.54099
C         16.00212        11.67596         0.13643
C         14.75522        12.52311        -0.32854
C         15.84487        14.67269         0.60686
C         14.64624        13.95558         0.21792
C         15.75282        16.16283         0.88106
C         14.71540        16.78962        -0.06337
C         15.77335        19.01170         0.65396
C         14.63106        18.29921         0.01787
C         15.75070        20.50053         0.60252
C         14.86523        21.24759        -0.38364
C         15.77319        23.32598         0.70237
C         14.58896        22.63580         0.15072
C         15.68802        24.81536         0.93154
C         14.32843        25.49058         0.77270
C         15.63622        27.63855         0.54432
C         14.43969        26.93966         0.39317
C         15.63366        29.05683         0.68423
C         14.43683        29.74593         0.53739
C         15.72503        31.88565         0.53515
C         14.39591        31.22575         0.81984
C         15.77794        33.26133         0.01489
C         14.50227        34.04024        -0.18479
C         15.68327        36.00655         0.59621
C         14.49908        35.44796         0.28533
C         15.73867        38.11348         0.04116
C         14.41669        38.34240        -0.54457
C         18.29181         6.42624        -0.66444
C         17.03125         5.61321        -0.77849
C         18.31929         7.41324         0.52992
C         17.05871         8.14283         0.96295
C         18.36878        10.35912         0.83663
C         17.08173         9.65456         1.08800
C         18.36545        11.81178         1.07933
C         17.07214        12.53226         0.81676
C         18.29764        14.72687         0.71305
C         17.04584        14.01139         0.71133
C         18.26864        16.17120         0.66622
C         17.07069        16.87864         0.76414
C         18.29948        18.99336         0.84461
C         17.08222        18.30452         0.79706
C         18.30044        20.46213         1.01362
C         17.02618        21.22382         0.88301
C         18.33755        23.35630         0.87712
C         17.10717        22.66751         0.66079
C         18.19280        24.82287         1.20752
C         16.95578        25.56670         0.76252
C         18.06095        27.79377         0.27990
C         16.90759        26.92612         0.52441
C         18.14578        29.04218         0.82141
C         16.86460        29.74984         1.24884
C         18.15666        31.91326         0.87537
C         16.92749        31.22250         0.83258
C         18.14138        33.41683         1.00676
C         17.06815        34.01996         0.12785
C         18.16264        36.34959         0.52402
C         16.98582        35.53987        -0.01046
C         18.21014        37.77823         0.04170
C         16.97599        38.42406        -0.44595
C         20.76274         6.23345        -0.57673
C         19.53464         5.58261        -0.67557
C         20.76516         7.61310        -0.16194
C         19.66493         8.15152         0.64724
C         20.92156        10.42077         0.72735
C         19.66363         9.61917         1.16138
C         20.87525        11.90028         0.68093
C         19.65339        12.61799         1.21435
C         20.67626        14.75081         0.27846
C         19.51483        14.03181         0.66295
C         20.54007        16.12399        -0.04203
C         19.48970        16.89203         0.43592
C         20.77863        19.01699         0.97319
C         19.58707        18.32296         0.70891
C         20.60656        20.39614         1.64863
C         19.60284        21.16094         0.70587
C         21.01334        23.25120         0.71992
C         19.58075        22.67498         0.82658
C         21.15300        24.75472         0.66382
C         20.33418        25.47158        -0.20646
C         20.98714        27.60222         0.84733
C         20.17102        26.85010        -0.00630
C         20.78075        29.04211         1.07189
C         19.44609        29.70039         1.11338
C         20.68773        31.96457         1.06443
C         19.41606        31.23219         1.20831
C         20.65470        33.40645         0.85903
C         19.47803        34.10900         0.82205
C         20.73987        36.35087         0.75482
C         19.43918        35.60486         0.86024
C         20.70538        37.80885         0.28980
C         19.40805        38.41630        -0.07210
C         23.18517         6.27578        -1.16654
C         22.00606         5.57690        -0.91192
C         23.10364         7.75689        -1.19101
C         21.87767         8.43440        -0.61162
C         23.19153        10.63318        -0.55011
C         22.07020         9.79912        -0.05488
C         23.19895        11.95126        -0.15834
C         21.99387        12.60239         0.31370
C         23.26713        14.81415         0.43062
C         21.98688        14.08565         0.01563
C         23.27258        16.23609         0.82682
C         22.42422        17.16872         0.31192
C         23.04951        18.88462         2.04118
C         22.24123        18.59818         0.74294
C         23.15871        20.40410         2.21139
C         21.88572        21.17448         1.99835
C         23.20516        23.35030         2.00094
C         21.83392        22.70671         1.91275
C         23.26460        24.74133         1.93933
C         22.11261        25.49339         1.41053
C         23.10523        27.67219         2.23662
C         22.09874        26.90732         1.40530
C         23.19886        29.22526         1.87364
C         21.88446        29.81751         1.37543
C         23.15973        31.91277         0.87455
C         21.87968        31.26008         1.21391
C         23.13714        33.29021         0.52022
C         21.98215        34.13885         0.98325
C         23.08528        36.20604         0.01490
C         21.96072        35.56793         0.46645
C         23.11719        37.63372        -0.29680
C         21.93151        38.36682        -0.27822
C         25.57254         6.39860        -1.80295
C         24.43695         5.64228        -1.41835
C         25.34715         7.81891        -1.99690
C         24.34084         8.54374        -1.40722
C         25.73334        10.79752        -1.16815
C         24.36172        10.02333        -1.25282
C         25.76150        12.04003        -0.31236
C         24.47155        12.68869         0.05509
C         25.76055        14.88890         0.38979
C         24.44727        14.12934         0.39601
C         25.73420        16.12800         1.24930
C         24.45185        16.74353         1.57990
C         25.68525        18.93578         1.94278
C         24.42040        18.18292         2.07527
C         25.65893        20.40258         1.93866
C         24.46275        21.09329         2.08993
C         25.75514        23.31786         2.06307
C         24.41684        22.56164         2.27381
C         25.70357        24.75110         1.74948
C         24.50892        25.45428         1.97073
C         25.58477        27.58537         1.25214
C         24.57551        26.95323         2.19145
C         25.69342        29.09880         1.33158
C         24.29827        29.63611         0.88502
C         25.52517        31.69535         0.07275
C         24.30750        31.13258         0.68029
C         25.52378        33.13662        -0.35572
C         24.23867        33.89644        -0.20476
C         25.55871        36.07995        -0.51010
C         24.27336        35.41601        -0.39064
C         25.58493        37.49655        -0.63231
C         24.36124        38.22670        -0.64861
C         28.14998         6.56364        -1.80202
C         26.88861         5.87061        -1.89184
C         28.29168         7.98372        -1.62024
C         27.21339         8.90137        -1.88069
C         28.33372        10.82600        -0.91474
C         27.03988        10.11725        -1.25941
C         28.21637        12.03930        -0.03814
C         27.05199        12.75513        -0.03062
C         28.18829        14.67439         1.01105
C         27.01481        14.06866         0.58267
C         28.18013        16.02143         1.68870
C         26.89128        16.79478         1.56024
C         28.08859        18.93117         1.23864
C         26.86442        18.22521         1.76966
C         28.13550        20.40235         1.54698
C         26.91773        21.11774         1.75242
C         28.07938        23.22721         1.22073
C         26.93418        22.53495         1.68584
C         28.01971        24.63144         0.93397
C         26.86252        25.37431         1.19892
C         28.01041        27.50626         0.40939
C         26.77876        26.78944         0.79153
C         28.04222        28.88505         0.32320
C         26.85145        29.67242         0.54194
C         28.03021        31.69361        -0.23439
C         26.83024        31.00426         0.18567
C         27.99973        33.13391        -0.44791
C         26.81080        33.84745        -0.41323
C         28.05717        36.00776        -0.77206
C         26.83411        35.34217        -0.20485
C         28.04490        37.42028        -0.98386
C         26.82823        38.14980        -0.86255
C         30.58181         6.38198        -1.34194
C         29.34008         5.79314        -1.62812
C         30.65997         7.78289        -1.08681
C         29.49386         8.54557        -1.12685
C         30.70860        10.63147        -0.31326
C         29.40370         9.87179        -0.39386
C         30.70456        11.89861         0.43345
C         29.38180        12.48807         0.81967
C         30.67680        14.63325         1.21645
C         29.45104        13.98133         0.99021
C         30.66479        16.08261         1.34828
C         29.43848        16.80014         1.41194
C         30.61535        18.92098         1.34680
C         29.40100        18.19815         1.41580
C         30.61270        20.36263         1.30405
C         29.34630        21.08208         1.37070
C         30.50946        23.18219         0.86690
C         29.32324        22.50465         1.13982
C         30.46185        24.51017         0.25454
C         29.14886        25.24841         0.19927
C         30.50737        27.43187         0.00550
C         29.15880        26.73327        -0.19643
C         30.49127        28.87831        -0.01501
C         29.28493        29.57639        -0.00180
C         30.48171        31.68925        -0.57602
C         29.25188        31.00515        -0.22648
C         30.42068        33.09627        -0.88794
C         29.25462        33.81959        -0.71473
C         30.45718        35.95744        -1.18029
C         29.24918        35.27513        -0.90626
C         30.46031        37.35331        -1.41370
C         29.25671        38.06939        -1.34101
C         32.94651         6.15694        -0.65028
C         31.78924         5.60080        -1.11748
C         33.10545         7.58423        -0.46004
C         32.02419         8.44382        -1.06833
C         33.16368        10.39157         0.17320
C         32.00400         9.87680        -0.54106
C         33.10679        11.69998         0.78288
C         31.88878        12.53139         0.76865
C         33.20579        14.60742         1.32543
C         31.94847        13.92348         1.17335
C         33.14576        16.07133         1.49513
C         31.89057        16.78628         1.37145
C         33.07016        18.96113         1.34898
C         31.85478        18.21774         1.37167
C         33.08760        20.37856         1.21307
C         31.82158        21.06059         1.24404
C         33.06514        23.26191         0.93703
C         31.78955        22.53043         1.16689
C         33.03140        24.55988         0.20500
C         31.73122        25.25641        -0.02922
C         33.02773        27.44746         0.18485
C         31.69495        26.74048        -0.04427
C         33.01651        28.88592        -0.25320
C         31.78088        29.66093         0.09817
C         32.93783        31.67380        -0.93443
C         31.70501        31.01692        -0.55179
C         32.92651        33.03192        -1.30327
C         31.62738        33.77157        -1.49557
C         32.95064        35.88557        -1.67530
C         31.76025        35.21449        -1.02297
C         32.87375        37.30876        -1.92400
C         31.71362        38.00475        -1.76993
C         34.24414         8.16983         0.02730
C         35.57256        10.27963         0.37130
C         34.34583         9.60773         0.24981
C         35.63538        11.70260         0.44653
C         34.48370        12.44876         0.98612
C         35.72875        14.52629         0.77348
C         34.45769        13.91351         1.07529
C         36.10661        15.78979         1.26005
C         34.24777        16.86955         1.82456
C         35.49642        19.03701         1.58004
C         34.29126        18.28947         1.61198
C         35.58232        20.35478         1.06488
C         34.33536        21.04690         1.04009
C         35.62521        23.19775         0.52162
C         34.36544        22.51414         0.97070
C         35.48430        24.57648        -0.03738
C         34.31374        25.27259         0.01672
C         35.52488        27.42597        -0.25445
C         34.19512        26.69365        -0.49035
C         35.44702        28.85679        -0.70716
C         34.19995        29.54636        -0.62901
C         35.38554        31.62989        -1.28691
C         34.17129        30.96002        -0.93780
C         35.34447        33.01996        -1.59493
C         34.13435        33.72081        -1.60371
C         34.08084        35.14868        -1.89808
C         36.71167        12.41548        -0.08202
C         37.87770        14.53914        -0.47958
C         36.77285        13.82681         0.03760
C         38.04449        15.92157        -0.24363
C         37.17428        16.54049         0.72127
C         38.15242        18.76853         0.26001
C         37.34258        17.91938         1.01619
C         38.04314        20.22645         0.25517
C         36.84608        20.97795         0.59115
C         37.95729        23.01629        -0.30841
C         36.82186        22.35960         0.23047
C         37.89801        24.39017        -0.84936
C         36.64137        25.18276        -0.72994
C         37.96685        27.38438        -1.01659
C         36.66571        26.67171        -0.91331
C         37.90120        28.79904        -1.08246
C         36.66012        29.52265        -1.04045
C         36.60863        30.91127        -1.31883
C         39.10228        16.71097        -0.76311
C         40.32155        18.84490        -0.90300
C         39.17103        18.09288        -0.52165
C         40.38043        20.20365        -0.65408
C         39.18758        20.92064        -0.24215
C         40.41615        23.05973        -0.68956
C         39.18181        22.32826        -0.43297
C         40.43939        24.43806        -0.78396
C         39.20482        25.18317        -1.04234
C         39.15528        26.65536        -1.02484
C         41.60595        20.94034        -0.86659
C         41.64107        22.29727        -0.79742
O         33.80402        11.77015         2.06590
O         32.47533        23.29063         2.27505
O         36.64385        18.44847         2.10803
O         15.65847        23.91324         2.07498
O         23.88688        34.51052        -1.50600
O         22.36310        20.85545         3.35456
O         12.73666        17.28642        -2.06043
O         31.45560        10.77563        -1.57233
O         24.37908        17.06648         3.01929
O         10.52394        16.12830        -2.26834
O         18.96738        25.38501         1.96515
O         18.53301        36.12200         1.90030
O         26.26533         8.47512        -2.81119
O         25.23179        23.01442         3.39558
O         17.18373         8.78252         2.27356
O         10.67872        22.95209        -2.56579
O         35.40047        16.28879         2.36142
O         38.47653        24.53491        -2.16811
O          9.91769        26.43410        -2.39791
O          7.61736        22.75794        -2.50844
O         20.87855        37.42468         1.72287
O         13.82722        33.69562        -1.43276
O         24.88471        10.84277        -2.34803
O         19.90818        12.79645         2.63551
O         16.77548        33.34616        -1.11304
O         32.40314        24.54057        -1.15169
O         22.69325        27.58683         3.56138
O         10.50901        14.49502         0.88832
O         36.28692        25.82033        -2.01327
O         13.75172         8.08070         2.17802
O         19.31555        30.40248         2.42752
O         13.77859        20.31242        -2.33647
O         21.56827        16.78622        -0.72321
O         15.23425        19.83549         1.77756
O         22.05117         8.31353        -2.07144
O         25.21592        11.84120         1.05193
O         22.07141         9.82641         1.42501
O         35.27889        23.12781         1.95053
O         19.20359         7.11571         1.60716
O         17.61587        20.91226         2.20427
O          8.90366        19.77646         0.63989
O         25.34664        32.07732        -1.36256
O         14.73508        12.59654        -1.69397
O         19.03587        27.37368        -0.64542
O         25.59695        27.06602        -0.09213
O         21.71213        14.20494        -1.37750
O         15.71212        37.28298         1.19143
O         29.57902        24.44346        -0.94642
O         19.72883         9.58155         2.60363
H         20.66957         9.42986         2.84648
O         12.43614        13.91999        -2.05046
H         13.32430        13.47360        -2.22188
O         33.90939        26.71482        -1.90093
H         33.36840        25.91656        -2.10927
O         28.82906        11.31614        -2.19794
H         28.14770        11.90259        -2.58938
O         27.85863        18.90331        -0.22758
H         28.61211        19.36501        -0.65448
O         23.95191        29.05220        -0.38941
H         24.63770        29.29357        -1.04803
O         13.71630        25.54079         2.10594
H         14.12659        24.81378         2.63416
O         15.37043        10.82409         2.36019
H         15.83349        10.23062         2.99235
O         15.18621        16.45708        -1.38241
H         14.52578        16.80748        -2.03266
O         32.39043         8.53533        -2.47863
H         31.92218         9.32654        -2.83396
O         10.05659        11.78701         0.96721
H          9.85552        12.72945         1.17905
O         18.37291         7.33925        -1.82950
H         18.63939         6.80911        -2.61109
O          7.95319        16.25191        -2.67689
H          8.75054        16.02050        -3.20697
O         21.08587        23.14102         3.06432
H         21.49944        22.73812         3.85903
O         26.95973        35.47873         1.27954
H         27.06979        36.43533         1.47227
O         21.63039        22.74214        -0.50109
H         21.30488        23.30031        -1.24130
O         25.87822        15.37815        -0.99791
H         25.01193        15.75451        -1.26560
O         28.91050        26.79703        -1.62855
H         29.25263        25.95342        -2.01081
O         32.02851        35.16107         0.40903
H         32.12619        36.08123         0.73169
O         28.24163        15.72138         3.13062
H         29.00850        15.12643         3.27754
O         16.91546        35.84860        -1.42276
H         16.63976        35.01696        -1.88415
O         22.76123        19.46676        -0.29840
H         22.30299        19.23048        -1.13413
O         15.74685        21.50110        -1.51003
H         15.21192        21.15566        -2.29785
O         15.31072        16.32814         2.25862
H         16.01935        16.00850         2.85594
O         17.69448        33.67787         2.37315
H         18.42249        33.44252         2.98642
O         35.84701        27.43056         1.15982
H         35.00442        27.57529         1.66259
O         15.75851         7.46271        -1.59340
H         16.67845         7.77642        -1.80604
O         13.11848        36.68245         1.86441
H         13.96251        37.14186         2.08527
O         16.59333        11.13602        -1.05768
H         16.08414        11.57837        -1.80369
O         22.19087        34.30075         2.43186
H         21.56670        34.98794         2.75252
O         11.51216         9.55897         1.42743
H         12.16978         9.06132         1.97176
O         33.22156        27.45122         1.63818
H         32.73008        28.23741         1.98852
O         12.80162        16.41524         1.46273
H         13.52330        16.30635         2.12883
O         19.51233        24.83808        -1.10439
H         18.95297        25.53536        -1.51698
O         25.99092        29.50241         2.67670
H         25.57494        28.84673         3.29736
O         23.45057        29.89215         3.11571
H         23.04763        29.27337         3.79246
O         25.08994        27.14195         3.53103
H         24.25392        27.19697         4.09062
O         15.66607         6.32685         1.62210
H         13.95487         7.18412         2.53195
O         16.69203        29.74002         2.69064
H         17.57152        29.98881         3.07207
O         31.92839        29.91722         1.57619
H         31.18668        30.50421         1.84353
O         29.00178         9.51270         0.95007
H         29.70631         8.97638         1.36849
O         22.24115        18.36205         3.10399
H         22.80428        17.73752         3.62398
O         29.08984        11.95739         2.17415
H         28.12188        12.03193         2.32124
O         19.94156        20.15166         2.89153
H         20.64278        19.90615         3.54100
O         17.41279        12.15762         2.19138
H         19.05088        12.65667         3.10161
O         14.21219        31.36912         2.27457
H         14.93031        30.84117         2.70374
O         31.38865        33.83103        -2.93382
H         31.29097        32.91363        -3.26450
O         19.91385        20.80262        -0.66284
H         20.73869        21.29148        -0.91213
H          5.29027        18.54235         0.28282
H          4.10487        20.69033         0.46238
H          3.98681        23.11458         0.04661
H          5.14798        25.24546        -0.60068
H          7.19217        14.28772        -0.86033
H          6.31051        16.38818        -0.35968
H          6.25179        27.31631        -0.81534
H          7.41020        29.54251        -0.62313
H         11.31294        10.41443        -1.84632
H          9.95329        12.19455        -2.38302
H          8.60691        31.69952        -0.49451
H          9.76310        33.85456        -0.11567
H         12.51106         5.54614        -0.48807
H         11.47997         7.77564        -1.06067
H         11.01596        36.01448         0.23264
H         12.41437        37.83337        -0.91241
H         14.52851         4.41068        -1.18828
H         14.32421        39.19340        -1.23999
H         17.02932         4.59842        -0.36104
H         17.07131        39.13757        -1.27850
H         19.48247         4.54068        -1.02167
H         19.43676        39.43575        -0.48771
H         21.99851         4.48047        -0.99873
H         21.91746        39.39512        -0.66980
H         24.51746         4.55187        -1.29680
H         24.39029        39.30522        -0.86313
H         26.96509         4.77268        -1.81205
H         26.83848        39.23660        -1.03014
H         29.27885         4.69779        -1.72082
H         29.25113        39.15167        -1.53769
H         33.80019         5.50649        -0.40543
H         31.73110         4.51120        -1.25938
H         33.78439        37.82723        -2.26100
H         31.69183        39.08657        -1.96778
H         35.10513         7.54377         0.30861
H         36.50347         9.72207         0.19043
H         36.28219        33.54389        -1.83259
H         34.99068        35.63462        -2.28394
H         37.53413        11.88099        -0.57914
H         38.63127        13.99390        -1.06558
H         38.83061        29.36882        -1.23570
H         37.53422        31.44449        -1.58308
H         39.88822        16.23474        -1.36648
H         41.18494        18.32354        -1.34131
H         41.40306        24.96929        -0.80903
H         40.11480        27.19563        -1.00531
H         42.52450        20.36812        -1.06234
H         42.58656        22.84129        -0.93596
