         232
 CSIRO Nanostructure Databank - Neutral Graphene Oxide Data Set
C        -10.30099         0.48536         2.42332
C         -9.39508         1.30360         1.63809
C         -8.59076         0.71319         0.48566
C         -7.21389         1.36276         0.38738
C         -6.12263         0.67537        -0.16024
C         -4.79014         1.30735        -0.17344
C         -3.57280         0.58511        -0.71921
C         -2.47482         1.42301        -1.29409
C         -1.23854         0.70736        -1.80595
C          0.04696         1.42786        -1.74630
C          1.22115         0.76172        -1.33542
C          2.45677         1.44326        -1.32239
C          3.62639         0.80058        -0.68673
C          4.99602         1.35083        -1.05833
C          6.09781         0.72029        -0.23424
C          6.97931         1.43558         0.59007
C          8.13133         0.85774         1.16661
C          9.18654         1.74816         1.83205
C         10.47894         1.00873         2.10739
C         -9.27179         2.62940         1.93741
C         -8.18573         3.42905         1.40573
C         -7.12315         2.73790         0.74419
C         -5.94968         3.52336         0.35239
C         -4.73954         2.79389        -0.18037
C         -3.41042         3.44734        -0.22029
C         -2.36992         2.83339        -0.85575
C         -1.21253         3.63169        -1.30429
C          0.02700         2.88436        -1.86255
C          1.32001         3.63815        -1.95397
C          2.62033         2.80790        -1.87334
C          3.96688         3.59344        -1.86560
C          5.08536         2.87333        -1.10059
C          6.03017         3.63850        -0.21688
C          6.57426         2.83813         0.91816
C          8.73902         4.00658         0.76932
C          9.40063         2.85740         0.77305
C         -8.12049         4.80840         1.62533
C         -6.93451         5.56596         1.34345
C         -5.81556         4.89451         0.83591
C         -4.50670         5.55328         0.82979
C         -3.27365         4.82732         0.28197
C         -2.12138         5.64108        -0.14406
C         -1.03751         5.00986        -0.83614
C          0.18395         5.68944        -1.10926
C          1.34907         5.07340        -1.62051
C          2.63467         5.76660        -1.53334
C          3.83348         5.05372        -1.45342
C          5.02863         5.74988        -0.97279
C          5.99110         5.12271        -0.22659
C          6.99124         5.89608         0.62067
C          8.37319         5.27378         0.82661
C         -6.84062         6.97597         1.59824
C         -5.67294         7.69283         1.33108
C         -4.47131         7.01478         0.93326
C         -3.26390         7.69673         0.70864
C         -2.11936         7.00753         0.19305
C         -0.86453         7.75336         0.00425
C          0.16929         7.16057        -0.89775
C          1.39909         7.96838        -1.15078
C          2.66254         7.22072        -1.32465
C          3.83885         7.92665        -1.23313
C          5.15785         7.20237        -1.35952
C          6.26257         7.94034        -0.64699
C          7.13746         7.32702         0.17609
C         -5.61232         9.12979         1.48615
C         -4.45986         9.81419         1.25519
C         -3.23224         9.14886         0.86469
C         -2.09708         9.88392         0.60535
C         -0.82325         9.24177         0.26680
C          0.32725        10.02068        -0.23501
C          1.44921         9.39353        -0.71165
C          2.69712        10.08169        -0.89368
C          3.86083         9.37530        -1.11476
C          5.14756        10.05559        -1.11400
C          6.29873         9.38016        -0.87446
C        -10.27892        -0.86600         2.40977
C         -9.41602        -1.60291         1.46623
C         -8.55198        -0.82599         0.51611
C         -7.41290        -1.52913        -0.18704
C         -6.23645        -0.70364        -0.67095
C         -5.05112        -1.36810        -1.39540
C         -3.66960        -0.81540        -1.12627
C         -2.53856        -1.50723        -1.59539
C         -1.22420        -0.80842        -1.94164
C         -0.04859        -1.48003        -1.28087
C          1.04744        -0.62260        -0.67881
C          2.31852        -1.41514        -0.51435
C          3.55692        -0.65154        -0.30614
C          4.81281        -1.46198        -0.27880
C          6.15008        -0.73444        -0.27312
C          7.33013        -1.42642         0.32450
C          8.43817        -0.54349         0.93670
C          9.48722        -1.20244         1.75853
C         10.60059        -0.33256         2.12582
C         -9.05722        -2.99366         1.71111
C         -8.08867        -3.65872         0.94208
C         -7.21611        -2.98085        -0.00152
C         -6.13489        -3.66851        -0.59785
C         -5.09965        -2.92567        -1.39852
C         -3.81917        -3.66075        -1.77564
C         -2.54332        -2.90025        -1.77219
C         -1.20425        -3.62252        -1.89136
C         -0.02620        -2.84432        -1.27203
C          1.15316        -3.56963        -0.77666
C          2.32242        -2.79064        -0.38975
C          3.48958        -3.50425         0.14334
C          4.73602        -2.81015         0.27782
C          5.90883        -3.40833         0.80148
C          7.14810        -2.75345         0.88489
C          8.14222        -3.30940         1.89270
C          9.42618        -2.52853         2.02948
C         -7.94057        -5.04860         1.11966
C         -6.91897        -5.77412         0.46593
C         -5.95351        -5.06207        -0.36020
C         -4.86510        -5.83207        -0.91486
C         -3.77648        -5.19685        -1.78566
C         -2.43064        -5.80699        -1.42335
C         -1.26011        -5.04254        -1.36381
C          0.05227        -5.72197        -1.24995
C          1.22914        -4.95283        -0.78307
C          2.32647        -5.66683        -0.11333
C          3.41041        -4.87241         0.43256
C          4.50363        -5.52039         1.19503
C          5.80984        -4.77312         1.37454
C          7.10174        -5.52338         1.49094
C          8.27548        -4.78175         1.64044
C         -6.84630        -7.14897         0.67819
C         -5.66871        -7.94725         0.25026
C         -4.78332        -7.19299        -0.71029
C         -3.68446        -8.01067        -1.35868
C         -2.42276        -7.20102        -1.21643
C         -1.19262        -7.86568        -0.76680
C          0.09676        -7.21522        -1.14674
C          1.41342        -7.91374        -0.81027
C          2.33527        -7.04843         0.01919
C          3.28339        -7.80559         0.93030
C          4.54153        -7.02429         1.31532
C          5.88725        -7.71157         1.36645
C          7.11351        -6.91694         1.35929
C         -5.97813        -9.33539        -0.26994
C         -4.94512       -10.06650        -0.72024
C         -3.62872        -9.41634        -0.78235
C         -2.48888       -10.03418        -0.40506
C         -1.21232        -9.29400        -0.31680
C          0.08125       -10.00370        -0.23580
C          1.25854        -9.33250        -0.29133
C          2.53804        -9.96995        -0.03875
C          3.57872        -9.21898         0.42157
C          4.88971        -9.81997         0.56752
C          5.97697        -9.13306         0.97888
O         -5.65173         3.40753        -1.13357
O          6.42717         3.20945         2.08967
O         -4.86989        -8.16456         1.47414
H         -4.60259        -7.28631         1.81903
O         -1.05137        -1.03312        -3.37961
H         -1.69144        -0.43663        -3.83302
O         -0.91773        -3.75940        -3.31207
H         -0.91760        -2.83847        -3.68107
O         -0.96562         3.46697        -2.74025
O         -4.86493        -3.31589        -2.78095
O         -2.25010         1.24033        -2.72343
O          5.51267         7.20663        -2.77567
H          4.91739         6.57658        -3.23627
O          0.36167         7.82462        -2.19796
O          5.17202         0.97271        -2.45228
H          6.10695         1.15898        -2.68816
O          0.18219        -6.61266        -2.46152
O         -3.97407        -8.22982        -2.76583
H         -4.01869        -7.33900        -3.20220
O         -4.00417        -5.60117        -3.16252
H         -4.64086        -4.95137        -3.54672
O          2.15773        -8.09437        -2.05550
H          1.77545        -7.45268        -2.70533
O          5.63772        -1.36302        -1.48691
O          6.44085         3.17464        -1.55777
O         -5.21211        -0.93262        -2.77596
H         -6.14192        -1.12782        -3.03386
O          6.40074         5.96024         1.95388
H          6.34527         5.03244         2.29632
O          8.77363         2.28514         3.08504
H          7.88745         2.70809         2.97733
O          2.52583        -7.97866         2.16243
H          3.18917        -8.05694         2.88764
O          7.50663        -3.14161         3.21281
H          6.75335        -3.76905         3.28085
O          1.98642         3.11541        -3.14481
O          8.52349        -1.06980        -0.43895
O          3.47205         0.42083         0.72904
O         -3.77968         0.75215         0.74295
O         -7.40782        -0.96984        -1.55248
O          0.61472        -0.29958         0.68993
H          1.40988         0.04847         1.15836
O          4.40795         3.65635        -3.24160
H          4.54291         2.73052        -3.54499
O         -9.29238         1.08420        -0.72646
H         -8.96527         0.48966        -1.43952
O         -9.81284        -1.37970         0.03199
O          5.04784        -7.47314         2.60186
O         -3.52820         4.88268         1.73206
O         -0.34775         8.24772         1.28539
O         -1.25457        -8.18166         0.68369
O          4.84476        -4.86302         2.46835
H         11.54376        -0.80158         2.44547
H         11.32804         1.63236         2.42444
H          9.94188         2.54873        -0.14007
H          9.10318         5.97955         1.26936
H          7.91790         7.92150         0.67733
H          7.25043         9.91795        -0.75054
H          5.15124        11.15167        -1.20547
H          2.73530        11.16887        -0.72971
H          0.34497        11.10408        -0.04168
H         -2.14047        10.98316         0.63864
H         -4.43454        10.90733         1.37508
H         -6.52392         9.66267         1.79302
H         -7.73127         7.50968         1.96066
H         -8.97446         5.31855         2.09409
H         -9.93184         3.08423         2.69250
H        -10.95516         1.01123         3.13579
H        -10.92498        -1.44528         3.08514
H         -9.62096        -3.56538         2.46254
H         -8.62811        -5.58067         1.79264
H         -7.57551        -7.62074         1.35415
H         -6.99364        -9.74491        -0.17429
H         -5.05557       -11.12238        -1.01027
H         -2.51061       -11.07478        -0.04689
H          0.07023       -11.06814         0.04545
H          2.66094       -11.04830        -0.22670
H          4.98968       -10.87573         0.27241
H          6.96279        -9.61815         1.02322
H          8.07802        -7.44558         1.33789
H          9.25235        -5.28580         1.67222
H         10.23751        -3.00308         2.60278
