         324
 CSIRO Nanostructure Databank - Neutral Graphene Oxide Data Set
C          1.59845         3.18382         0.90869
C          0.61267         3.76099         1.65348
C          1.71348         5.92103         1.48453
C          0.71233         5.14207         2.01003
C          1.74030         8.31715         1.33929
C          0.78863         9.20346         1.85953
C          1.34813        10.87471         0.19607
C          0.60505        10.47714         1.28589
C          1.28262        12.33370        -0.19929
C          0.02433        12.80568        -0.88853
C          1.17712        14.94222        -1.26080
C         -0.01215        14.09210        -1.29906
C          1.10604        16.33002        -1.28815
C         -0.11638        17.08043        -1.15841
C          1.03535        19.26068        -0.94580
C         -0.15225        18.44557        -1.02939
C          1.03630        20.62735        -0.73543
C         -0.17566        21.41480        -0.58065
C          1.05182        23.31026         0.44239
C         -0.18022        22.67478        -0.07321
C          1.08743        24.71374         0.94745
C         -0.00017        25.40390         1.41774
C          1.32116        27.36780         2.12666
C          0.11185        26.71772         1.98685
C          1.45904        28.70447         2.64945
C          3.75024         3.30666        -0.21907
C          2.70534         3.95873         0.39044
C          3.66919         6.21952        -0.04969
C          2.70526         5.41622         0.55814
C          3.53716         7.68160        -0.33894
C          2.50824         8.59474         0.19225
C          3.58450        10.63929        -1.01347
C          2.34096         9.95377        -0.38476
C          3.66854        12.11436        -1.02166
C          2.49301        12.86141        -0.93671
C          3.67371        14.95483        -1.44323
C          2.47912        14.27392        -1.22260
C          3.68391        16.42563        -1.56967
C          2.34980        17.11824        -1.43880
C          3.62844        19.21284        -0.71470
C          2.32525        18.50855        -0.88788
C          3.62635        20.68286        -0.68383
C          2.31907        21.43128        -0.84754
C          3.60875        23.41643        -0.02831
C          2.34471        22.64044         0.06343
C          3.53427        24.85529         0.22182
C          2.43251        25.30846         1.12600
C          3.79888        27.45607         1.51546
C          2.56132        26.66653         1.74681
C          3.87898        28.76251         2.15540
C          2.67358        29.32932         2.71932
C          6.19973         3.39632        -0.72711
C          4.88858         4.04427        -0.76731
C          6.12600         6.29393        -0.70109
C          4.82595         5.57091        -0.73571
C          6.12182         7.70386        -0.71769
C          4.83871         8.38782        -0.90324
C          6.16434        10.61752        -0.97891
C          4.86700         9.87540        -1.09706
C          6.14807        12.10245        -0.89977
C          4.92584        12.77465        -1.12206
C          6.27582        14.95296        -1.34214
C          4.94827        14.21470        -1.42416
C          6.27798        16.48406        -1.42992
C          4.93249        17.16731        -1.23786
C          6.13197        19.29288        -0.74044
C          4.91642        18.51122        -0.95305
C          6.08537        20.68245        -0.56292
C          4.81023        21.37331        -0.56085
C          6.04887        23.57939        -0.38790
C          4.80153        22.81844        -0.34241
C          6.04060        24.96022        -0.29231
C          4.77952        25.66990         0.05147
C          6.06196        27.77339         0.60136
C          4.85213        26.95468         0.79723
C          6.25225        28.92854         1.52070
C          5.09223        29.42535         2.20496
C          8.62191         3.45601        -0.43733
C          7.37224         4.13113        -0.59828
C          8.54964         6.29636        -0.28226
C          7.34210         5.58344        -0.56978
C          8.54709         7.74033        -0.22132
C          7.33987         8.44211        -0.51332
C          8.53695        10.57659        -0.25771
C          7.37187         9.86900        -0.56550
C          8.47858        12.04429        -0.06887
C          7.33441        12.80525        -0.62107
C          8.56655        14.91587        -0.28727
C          7.43565        14.23001        -0.73627
C          8.53954        16.38718        -0.15878
C          7.30431        17.13778        -0.54138
C          8.57444        19.24976        -0.32946
C          7.38551        18.60307        -0.62650
C          8.55268        20.70540        -0.12913
C          7.29671        21.44032        -0.37894
C          8.55918        23.56917        -0.45456
C          7.30604        22.83758        -0.40028
C          8.54023        24.96450        -0.72976
C          7.23121        25.77185        -0.79749
C          8.49201        27.98872         0.00318
C          7.23310        27.21944        -0.17149
C          8.63489        29.08638         0.90875
C          7.48909        29.51939         1.66801
C         11.05093         3.45609        -0.00421
C          9.78534         4.15097        -0.11615
C         10.88435         6.30009         0.53583
C          9.72298         5.57653         0.02107
C         10.95074         7.75793         0.41584
C          9.73817         8.46560         0.08884
C         10.93360        10.62435         0.39912
C          9.73172         9.89170         0.10122
C         11.00105        12.02756         0.30897
C          9.72881        12.77328         0.35065
C         10.99755        14.90664        -0.18693
C          9.75484        14.29368         0.41337
C         10.98258        16.31512        -0.53290
C          9.79991        17.13282        -0.22951
C         11.09070        19.23961        -0.45065
C          9.82618        18.51856        -0.29536
C         11.11301        20.66342        -0.41388
C          9.87733        21.45357        -0.14262
C         11.03393        23.60410        -0.65314
C          9.82169        22.90146        -0.45901
C         11.03871        24.98825        -0.99621
C          9.73390        25.55208        -1.16812
C         10.73272        28.48139        -0.78822
C          9.54611        27.77186        -0.87265
C         10.99523        29.39467         0.24222
C          9.88492        29.73829         1.04748
C         13.51341         3.42880         0.25612
C         12.23528         4.10150         0.25925
C         13.43338         6.32269         0.56316
C         12.21804         5.53016         0.64960
C         13.41083         7.70490         0.72118
C         12.15394         8.41698         0.67664
C         13.47321        10.66192         0.69735
C         12.14097         9.88780         0.76817
C         13.45183        12.04768         0.20230
C         12.23594        12.71951         0.08565
C         13.51395        14.86917        -0.44505
C         12.19985        14.09170        -0.57603
C         13.55091        16.27512        -0.58836
C         12.29598        17.04742        -0.77611
C         13.53594        19.21576        -0.78798
C         12.30400        18.52678        -0.63197
C         13.52628        20.64002        -0.84251
C         12.31855        21.35387        -0.61318
C         13.58481        23.59171        -0.61989
C         12.30235        22.84339        -0.46914
C         13.54807        25.06144        -0.86962
C         12.31919        25.75850        -1.00905
C         13.58309        27.82301        -0.39967
C         12.49011        27.18583        -1.04343
C         13.50354        29.20043         0.11187
C         12.35228        29.87353         0.44019
C         15.97456         3.44093         0.38655
C         14.69839         4.11658         0.34992
C         15.86075         6.28117         0.91563
C         14.71611         5.62247         0.18619
C         15.89908         7.76112         0.81243
C         14.67910         8.45433         0.71830
C         15.92231        10.55230         0.40412
C         14.70496         9.86718         0.58539
C         15.90079        11.96317         0.08567
C         14.71688        12.69238        -0.07523
C         15.95674        14.84196        -0.42706
C         14.72803        14.13585        -0.33529
C         15.98135        16.24321        -0.59429
C         14.77765        16.99286        -0.63813
C         15.99872        19.13753        -0.87528
C         14.79321        18.45683        -0.81286
C         16.08397        20.56224        -1.25964
C         14.75348        21.36875        -1.24735
C         15.79265        23.60901        -1.58856
C         14.77698        22.85283        -1.09688
C         15.99191        25.06142        -1.39009
C         14.79417        25.76160        -0.82963
C         15.93858        27.68598         0.41872
C         14.78383        27.07821        -0.31159
C         16.05620        29.16510         0.24211
C         14.78530        29.94359         0.48719
C         18.43769         3.43224         0.55978
C         17.15197         4.09326         0.66716
C         18.39181         6.28011         1.26970
C         17.11656         5.50962         1.11688
C         18.38948         7.73248         0.99366
C         17.14548         8.44376         0.80588
C         18.41269        10.54549         0.55909
C         17.15787         9.84235         0.54906
C         18.43314        11.94702         0.34029
C         17.20409        12.60336        -0.15307
C         18.48617        14.79368        -0.08088
C         17.23550        14.08605        -0.42190
C         18.55100        16.22068        -0.39291
C         17.28570        16.92599        -0.78733
C         18.49156        19.15667        -0.30315
C         17.29962        18.42551        -0.81597
C         18.49564        20.57691        -0.42071
C         17.40358        21.23035        -1.07006
C         18.70126        23.36246        -1.09926
C         17.65348        22.52308        -1.53226
C         18.77005        24.83797        -1.55390
C         17.40844        25.63976        -1.58806
C         18.59288        27.73933        -0.72445
C         17.55456        27.12161        -1.41354
C         18.49680        29.11896        -0.28695
C         17.20464        29.78741        -0.12519
C         19.61581         4.07785         0.73966
C         20.88047         6.29589         0.74125
C         19.69458         5.51199         1.10253
C         20.84680         7.65326         0.77464
C         19.61482         8.40448         0.91250
C         20.82340        10.59889         0.91858
C         19.62880         9.84773         0.79696
C         20.81101        11.97790         0.82887
C         19.61814        12.68089         0.52516
C         20.67486        14.91939         0.99598
C         19.60319        14.13957         0.41161
C         20.68093        16.27824         0.98686
C         19.73748        17.02234         0.14700
C         20.71035        19.26859         0.68544
C         19.61369        18.50149         0.21882
C         20.74272        20.63774         0.52284
C         19.66701        21.32744        -0.09323
C         20.94107        23.48587        -0.10473
C         19.75635        22.73454        -0.40546
C         20.97090        24.84159        -0.29730
C         19.84127        25.58954        -0.74632
C         20.90654        27.69142         0.08760
C         19.78693        26.96660        -0.45337
C         20.84578        29.04217         0.32376
C         19.63010        29.76326         0.17236
O         17.46185        17.63265        -2.05466
O          1.80711        22.42564         1.38860
O          3.71885        25.67556        -0.99053
O          5.64566        10.19272        -2.30192
O          8.77361        12.30828         1.37117
O         19.69272        16.54726        -1.23833
O          7.49046        16.73170         0.84414
O          9.56615        26.76918        -1.84410
O          2.51322        10.09948        -1.83046
O         15.34150        20.86000        -2.47963
O         11.38707         5.79648         1.81842
O         16.16255         5.73622         2.22730
O         12.78328        10.43245         1.96841
O          2.97968        16.98447        -2.75602
O         16.50734        25.51004        -2.73959
O          2.83828        25.44098         2.52999
O         17.36040        13.12976        -1.52964
O          1.91005         7.16312         2.09774
O          9.23008        21.11222         1.12157
O          2.91367        18.60279         0.45793
O         13.07713        23.27127         0.72476
O         16.66138        27.00649         1.13607
O         11.67835        28.08435        -1.74785
O          5.82676        14.42853        -2.62882
O         11.51641        16.58845        -1.93454
O         16.73882        23.05581        -2.45204
O         19.16762         5.85739         2.43284
O          6.24621        28.08001        -0.84660
O          3.84219         7.80388        -1.76837
O          4.55883         4.83921        -1.97296
O         14.96159         5.87220        -1.23597
H         14.25954         5.42132        -1.75041
O         14.81659        31.20971        -0.17729
H         14.78834        31.05293        -1.14330
O         12.05374        13.81672        -2.01840
H         11.95453        14.69837        -2.45501
O          9.72614        14.68148         1.81681
H          9.13469        14.04210         2.27586
O         16.63517        27.85567        -2.06019
H         16.14622        27.21970        -2.65196
O          6.95830        25.95647        -2.20474
H          6.28900        26.67619        -2.27466
O          1.31641        13.04470         1.09293
H          1.18445        14.00055         0.91246
O          6.71769        16.82217        -2.77238
H          6.29077        16.17126        -3.37851
O         19.22866        24.83350        -2.92608
H         18.55226        24.35594        -3.45477
O          2.31410        21.97260        -2.20747
H          2.37008        21.22616        -2.84031
H          1.58471         2.10513         0.69893
H         -0.21808         3.16095         2.04858
H          0.02522         5.56880         2.75175
H          0.21471         8.90475         2.74509
H         -0.10737        11.17858         1.74013
H         -0.85997        12.15634        -0.95454
H         -0.93771        14.51254        -1.71955
H         -1.06809        16.52940        -1.16358
H         -1.13307        18.93777        -0.96777
H         -1.13599        20.96023        -0.86664
H         -1.12764        23.22839         0.00246
H         -1.00415        24.96075         1.34429
H         -0.81160        27.22722         2.29886
H          0.55985        29.21135         3.03007
H          3.76639         2.20655        -0.24718
H          2.74362        30.33181         3.16680
H          6.23697         2.30069        -0.63020
H          5.17343        30.37733         2.75098
H          8.64699         2.36020        -0.52806
H          7.60462        30.37247         2.35290
H         11.06255         2.37862        -0.22892
H          9.99561        30.51050         1.82224
H         13.52095         2.32803         0.22324
H         12.47017        30.84060         0.95500
H         15.99370         2.35954         0.17741
H         14.73774        30.17186         1.58919
H         18.43829         2.36932         0.27405
H         17.18953        30.88827        -0.20246
H         20.56301         3.53870         0.58603
H         21.80225         5.76633         0.45867
H         21.76811         8.20644         0.54568
H         21.77445        10.09036         1.12508
H         21.75418        12.52676         0.95097
H         21.43539        14.39349         1.58957
H         21.41085        16.82330         1.60148
H         21.58184        18.76155         1.12030
H         21.64085        21.18137         0.84171
H         21.82280        22.98952         0.31697
H         21.87325        25.37585         0.02798
H         21.85499        27.17683         0.28415
H         21.73342        29.56862         0.70209
H         19.57025        30.80559         0.51552
