         266
 CSIRO Nanostructure Databank - Neutral Graphene Oxide Data Set
C        -11.15345         0.63956        -0.72421
C         -9.90421         1.47581        -0.50122
C         -8.85925         0.59574         0.25204
C         -7.55160         1.34818         0.48162
C         -6.23908         0.65967         0.24772
C         -5.08026         1.37869         0.14164
C         -3.70288         0.74727         0.21030
C         -2.59641         1.45907        -0.56649
C         -1.33210         0.72027        -0.88007
C         -0.05357         1.50741        -1.09074
C          1.24089         0.73499        -1.42420
C          2.52491         1.57268        -1.19937
C          3.82868         0.83656        -1.27958
C          5.08665         1.55313        -0.84322
C          6.34749         0.79248        -0.60427
C          7.50436         1.46717         0.03092
C          8.63466         0.79098         0.34834
C          9.91633         1.50635         0.56144
C         11.13646         0.65775         0.60847
C        -10.14951         2.82056         0.22557
C         -8.85101         3.61600         0.29208
C         -7.60940         2.84212         0.55549
C         -6.31719         3.59557         0.59252
C         -5.07940         2.86915         0.15762
C         -3.77950         3.60388         0.08282
C         -2.48394         2.80851         0.12074
C         -1.25497         3.63556        -0.18223
C         -0.02393         2.95391        -0.70142
C          1.29323         3.60453        -0.48284
C          2.48920         2.95125        -0.61623
C          3.76502         3.66084        -0.40668
C          5.00369         2.97487        -0.40670
C          6.20194         3.67134        -0.12501
C          7.49244         2.96520         0.26365
C          8.71866         3.64637        -0.43046
C          9.98190         2.92691         0.07683
C         -8.81558         4.97132         0.15408
C         -7.58816         5.77692         0.17547
C         -6.33620         5.08634         0.57621
C         -5.03493         5.83478         0.50135
C         -3.70528         5.05790         0.44912
C         -2.49225         5.78181         0.09713
C         -1.29337         5.01607        -0.15811
C         -0.03746         5.80286        -0.29867
C          1.26637         5.07952        -0.36363
C          2.49079         5.75056         0.21119
C          3.77450         5.06286        -0.18581
C          4.97989         5.77237        -0.12092
C          6.20856         5.07761        -0.05482
C          7.45943         5.83568         0.09731
C          8.80442         5.12538         0.00046
C         -7.54504         7.07321        -0.23527
C         -6.26106         7.81338        -0.55857
C         -5.01655         7.20098         0.03366
C         -3.80367         7.89120         0.00677
C         -2.53848         7.19263         0.08761
C         -1.33337         7.96705         0.01871
C         -0.06570         7.22493         0.19652
C          1.20862         7.98194         0.32673
C          2.46051         7.24116        -0.05669
C          3.72559         8.00193        -0.12196
C          5.05709         7.28109        -0.26905
C          6.14207         7.89451         0.61855
C          7.44154         7.16537         0.36759
C         -6.26602         9.30452        -0.30086
C         -5.10681         9.99099        -0.18575
C         -3.80591         9.32643        -0.15634
C         -2.60701        10.02237        -0.19327
C         -1.34956         9.34897        -0.10413
C         -0.07852        10.18302        -0.20309
C          1.22678         9.46029         0.10829
C          2.41203        10.11290         0.10458
C          3.68201         9.39437         0.51640
C          5.00804        10.08897         0.27801
C          6.15604         9.39395         0.36312
C        -11.17814        -0.70397        -0.64454
C         -9.98327        -1.50419        -0.24112
C         -8.67550        -0.75102        -0.46118
C         -7.42682        -1.49311        -0.04535
C         -6.25040        -0.80998         0.16111
C         -4.97785        -1.52494         0.24811
C         -3.72782        -0.76044        -0.14431
C         -2.38680        -1.40347         0.20552
C         -1.17999        -0.66293        -0.29199
C          0.14576        -1.37998        -0.39230
C          1.38199        -0.66081        -0.82205
C          2.57811        -1.45481        -1.26657
C          3.88797        -0.69273        -1.57181
C          5.00894        -1.39136        -0.77868
C          6.39183        -0.72682        -0.75129
C          7.34182        -1.36719         0.25302
C          8.66257        -0.68787         0.61179
C          9.85859        -1.40320        -0.03807
C         11.12518        -0.66405         0.35854
C         -9.96933        -2.99416        -0.14494
C         -8.67364        -3.72846        -0.17356
C         -7.38951        -2.95689        -0.40457
C         -6.15030        -3.68559         0.06360
C         -4.93544        -2.90531         0.23627
C         -3.64791        -3.62918         0.44325
C         -2.27691        -2.90953         0.49669
C         -1.20115        -3.59556        -0.36564
C          0.07085        -2.85833        -0.64957
C          1.38301        -3.59111        -0.77067
C          2.57768        -2.81940        -1.22130
C          3.86637        -3.57516        -1.55317
C          5.00000        -2.88959        -0.74680
C          6.31984        -3.59540        -0.51222
C          7.36491        -2.84428         0.26115
C          8.66229        -3.53367         0.51259
C          9.82957        -2.86878         0.38675
C         -8.64108        -5.08107        -0.09264
C         -7.38711        -5.82890        -0.14638
C         -6.15087        -5.06239        -0.04369
C         -4.88080        -5.79451        -0.24889
C         -3.62882        -5.09713         0.17213
C         -2.35221        -5.76558        -0.18177
C         -1.18855        -5.08610        -0.34143
C          0.03937        -5.82848        -0.75857
C          1.35584        -5.09094        -0.81746
C          2.53010        -5.93185        -1.35293
C          3.86177        -5.12498        -1.34897
C          5.11876        -5.82221        -0.88558
C          6.41061        -5.09348        -0.52200
C          7.61403        -5.85014         0.14983
C          8.49263        -4.92824         1.04617
C         -7.38822        -7.19510        -0.22450
C         -6.17487        -8.06731        -0.46891
C         -4.87666        -7.27117        -0.49084
C         -3.57323        -8.06054        -0.42248
C         -2.37730        -7.23880        -0.00187
C         -1.09807        -7.98361         0.06004
C          0.08064        -7.32554        -0.58748
C          1.36772        -8.19084        -0.72042
C          2.56778        -7.21149        -0.48003
C          3.85523        -7.92169        -0.08803
C          5.03261        -7.25871        -0.56944
C          6.59332        -8.13961         0.49483
C          7.22319        -7.05454         1.00499
C         -6.07195        -9.23914         0.48542
C         -4.90126        -9.85533         0.76827
C         -3.60863        -9.36421         0.32416
C         -2.43073       -10.03754         0.54364
C         -1.13132        -9.45973         0.24354
C          0.07505       -10.07284         0.45912
C          1.34100        -9.39086         0.22384
C          2.51825        -9.94307         0.61676
C          3.83614        -9.45196         0.06595
C          4.98018        -9.97151         0.91528
C          6.15913        -9.36649         1.15894
O         -4.56047         3.40129        -1.13528
O         -4.24233         5.54619         1.69980
O          2.43581         5.57697         1.65392
H          1.73938         6.18732         2.00781
O         -6.33854         4.34759         1.84259
O         -3.73483        -4.60645         1.54517
O         -0.22883         2.53505        -2.11508
O         -1.70393        -7.45286         1.30150
O          0.54227         7.46724         1.53184
O          3.30783         1.57106        -2.43968
O         -9.38898         0.24599         1.53317
H         -9.40161         1.06229         2.08471
O          4.78044        -5.72567        -2.31533
O         -1.59090        -0.63290         1.12536
O         -7.63544         2.01552         1.78334
O          7.66968         3.18518         1.63677
O          1.66955        -4.41495         0.42848
O          6.79859        -2.09388         1.39344
O          1.09650        -0.86668         0.59246
O          2.93301         7.76884        -1.33866
O          9.91848         2.66097         1.48485
O         -2.32387         1.07567        -1.91164
O          6.11092         1.42896        -1.91880
O          4.11103        -3.36280        -2.94377
H          4.77836        -4.02139        -3.24268
O          6.14511        -8.00352        -0.88055
O          0.68641         5.68725        -1.57032
O         -7.23993        -2.94274        -1.89426
H         -7.07165        -3.86773        -2.18301
O         -0.92575        -3.08590        -1.70730
O         -3.28694         1.07539         1.59622
O          5.50481         7.50970        -1.62788
H          4.71379         7.41139        -2.20560
O          9.70667        -1.32127        -1.46903
H         10.35663        -1.91839        -1.89226
O          6.85728        -4.29870        -1.66194
O         -3.37347        -8.37238        -1.90097
O         -9.38385         1.90189        -1.77793
H         -9.15335         1.09344        -2.29511
O          4.54974        -2.10098         0.39555
O         -8.51890        -0.55285        -1.89608
H         -8.12006        -1.37982        -2.26761
O         -0.25976        -6.72379        -1.87726
O          9.67006         5.82177        -0.89668
H          9.38290         5.59412        -1.80740
O         -4.83086        -6.33618        -1.62356
O         -6.35706        -8.63435        -1.79704
H         -5.89519        -8.04095        -2.42982
O          3.05773        -7.07139         0.84084
O        -10.64413         2.60082         1.54769
H        -10.60163         3.44429         2.04229
O          1.50131        -8.69694        -2.00876
O          5.77521         7.65283         2.01022
H          6.56575         7.80387         2.56925
O        -10.11909        -2.17692         1.04838
O          3.93618        -9.95729        -1.28584
H          3.08243        -9.70447        -1.74623
O         -6.14171         7.66779        -2.02201
H         -5.37809         8.21089        -2.31259
O          1.14751         0.44207        -2.83212
H          0.87331         1.27324        -3.28324
O         -2.37051         2.27533         1.51583
O          8.88328        -0.82455         2.03193
H          8.16815        -0.34895         2.50462
O         -2.14959        -9.10193        -2.09161
H         -1.53533        -8.43344        -2.49345
O          4.23907        -0.79933        -2.95512
H          3.67077        -0.16079        -3.44455
O          2.29604        -6.29922        -2.70422
H          1.86025        -7.20903        -2.72865
O          7.84749        -4.81493         2.32543
H          7.66824        -3.86842         2.51650
O          8.45970        -6.31322        -0.90979
H          7.91321        -6.80606        -1.55910
O          6.97667        -1.01728        -2.03684
H          6.43308        -0.55058        -2.71442
O          3.54234         9.18817         1.94901
H          4.31797         8.64689         2.24983
O          8.60048         3.56832        -1.84819
H          8.12127         2.74589        -2.09424
O         -0.19760        11.34443         0.62879
H         -0.12817        11.05798         1.56285
O         -3.80692        -0.85293        -1.59271
H         -4.58324        -0.34331        -1.90724
O         -1.74828        -3.06537         1.81970
H         -2.31808        -2.58806         2.45704
H         12.06922        -1.23098         0.39760
H         12.08082         1.16107         0.86651
H         10.95381         3.34529        -0.26712
H          9.27717         5.15703         1.01523
H          8.39240         7.70878         0.48537
H          7.12462         9.90138         0.22899
H          5.02497        11.17580         0.10029
H          2.44293        11.19581        -0.09287
H         -0.02157        10.56552        -1.26120
H         -2.61028        11.11917        -0.27324
H         -5.12221        11.08810        -0.09731
H         -7.22600         9.84076        -0.34037
H         -8.47658         7.55941        -0.56639
H         -9.75329         5.50755        -0.06644
H        -10.90789         3.41406        -0.36399
H        -12.07312         1.17726        -1.00615
H        -12.12270        -1.24464        -0.81635
H        -10.87769        -3.58121        -0.40748
H         -9.57885        -5.65128        -0.00595
H         -8.35943        -7.71348        -0.26389
H         -7.01208        -9.66335         0.86847
H         -4.90513       -10.75720         1.40013
H         -2.45784       -11.03698         1.00550
H          0.11358       -11.12344         0.78636
H          2.52054       -10.88844         1.18141
H          4.77439       -10.91201         1.45060
H          6.85268        -9.80641         1.89214
H          7.58546        -7.08302         2.04309
H          9.48652        -5.43335         1.17559
H         10.78156        -3.38684         0.58951
