         410
 CSIRO Nanostructure Databank - Neutral Graphene Oxide Data Set
C         28.02036        27.44945        -0.84206
C         27.85402        28.80571        -0.30596
C         26.73223        29.66804        -0.71738
C         27.89808        31.73758        -0.04232
C         26.73477        31.01383        -0.48636
C         27.91706        33.12709         0.19681
C         26.70531        33.89036         0.15268
C         27.87891        35.94534         0.76865
C         26.68844        35.23063         0.42481
C         27.83480        37.33512         1.08613
C         26.64003        38.08714         1.07338
C         27.82330        40.23151         0.92941
C         26.63407        39.47579         0.98897
C         27.85606        41.59129         0.49079
C         26.69375        42.21456        -0.10778
C         27.80108        44.40857        -0.19877
C         26.69076        43.50659        -0.52439
C         27.96659        45.67841        -0.91143
C         30.42327        27.42252        -0.25964
C         29.21225        26.80280        -0.77697
C         30.39764        28.75373         0.09288
C         29.12535        29.49793         0.15723
C         30.43477        31.70328         0.33760
C         29.16570        30.98317         0.00388
C         30.37474        33.14570         0.63394
C         29.14319        33.83496         0.52931
C         30.35498        35.94461         1.04285
C         29.12057        35.24044         0.80334
C         30.37061        37.35401         1.23905
C         29.08062        38.01969         1.43023
C         30.35192        40.27666         1.16244
C         29.06913        39.59864         1.35896
C         30.30105        41.64696         0.85764
C         29.07536        42.30450         0.56709
C         30.35834        44.48563         0.20164
C         29.08003        43.76432         0.37772
C         30.33744        45.82971        -0.25539
C         29.13327        46.37214        -0.84357
C         32.87981        24.59755        -0.54893
C         31.70341        25.30442        -0.48218
C         32.91128        27.33686         0.12967
C         31.69284        26.69449        -0.19989
C         32.92110        28.74143         0.50472
C         31.61090        29.41161         0.61031
C         32.88694        31.59348         0.95088
C         31.60130        30.90285         0.83138
C         32.80424        33.03571         1.21764
C         31.56787        33.81008         0.98751
C         32.83183        35.95796         1.12768
C         31.58630        35.22332         1.10877
C         32.82715        37.40429         1.12015
C         31.58862        38.09919         1.25896
C         32.82719        40.25210         1.25737
C         31.59554        39.55133         1.28150
C         32.80418        41.72781         1.34007
C         31.51370        42.46083         1.05857
C         32.80819        44.54201         0.45950
C         31.56603        43.84986         0.55266
C         32.75661        45.92663         0.10866
C         31.55720        46.57752        -0.22409
C         32.71527        48.73833        -0.55444
C         31.58700        47.98950        -0.56929
C         35.34280        23.17874        -1.02926
C         35.36468        24.52837        -0.52822
C         34.13194        25.23567        -0.34377
C         35.39602        27.24144         0.33761
C         34.15072        26.60828         0.04852
C         35.33686        28.57702         1.06952
C         34.09445        29.42601         0.78849
C         35.33349        31.62651         1.06397
C         34.09841        30.88051         1.00520
C         35.36035        33.04971         0.94471
C         34.12074        33.82202         1.18202
C         35.22082        35.98811         0.51278
C         34.03545        35.26140         0.95336
C         35.27614        37.43657         0.73999
C         34.06072        38.12866         1.00935
C         35.32684        40.25485         1.03586
C         34.07916        39.56372         1.12048
C         35.38183        41.72842         1.25415
C         34.08745        42.50377         1.25394
C         35.30196        44.53365         0.42864
C         34.06924        43.89991         0.75783
C         35.25207        45.91906        -0.10202
C         34.01132        46.70184         0.16146
C         35.29153        48.86279        -0.48493
C         34.01061        48.17351        -0.13801
C         35.30137        50.25385        -0.66189
C         37.76041        23.08368        -1.25545
C         36.46909        22.48139        -1.36706
C         37.78482        24.42761        -0.68439
C         36.60568        25.17145        -0.28541
C         37.86113        27.33420         0.36052
C         36.62359        26.55159         0.19641
C         37.87210        28.73691         0.50770
C         36.63584        29.39116         1.00399
C         37.90136        31.63529         0.88199
C         36.61528        30.88730         1.10157
C         37.84863        33.12336         0.75154
C         36.53800        33.77626         0.71152
C         37.78427        35.96732         0.43801
C         36.52929        35.20469         0.37779
C         37.75914        37.37629         0.47807
C         36.51251        38.10812         0.64090
C         37.77230        40.21626         0.54161
C         36.52849        39.53789         0.75847
C         37.73569        41.67912         0.31177
C         36.69408        42.49136         1.04407
C         37.77314        44.59582         0.16469
C         36.55148        43.88967         0.45865
C         37.78725        45.99524        -0.15104
C         36.51340        46.67415        -0.41685
C         37.74361        48.83037        -0.73515
C         36.51184        48.15460        -0.51350
C         37.71141        50.23239        -0.97304
C         36.49457        50.92242        -0.92261
C         40.24288        20.26768        -1.36790
C         39.03590        20.93192        -1.42942
C         40.25980        23.08409        -1.71105
C         38.96288        22.35394        -1.42469
C         40.24417        24.52359        -1.16270
C         39.06288        24.87897        -0.37596
C         40.33331        27.40884        -0.07817
C         39.16403        26.74886         0.32788
C         40.29448        28.83231        -0.08050
C         39.08273        29.48599         0.32753
C         40.26243        31.63706         0.10521
C         39.10451        30.91527         0.40020
C         40.22890        33.11296        -0.21377
C         39.03005        33.85610         0.28873
C         40.27219        35.96743         0.23533
C         39.02169        35.24937         0.31026
C         40.26171        37.37314         0.33749
C         39.00103        38.08704         0.42566
C         40.26507        40.21888         0.25729
C         38.97053        39.50573         0.39574
C         40.29224        41.69363         0.06359
C         38.99483        42.43070         0.00233
C         40.25675        44.58667         0.15313
C         39.01714        43.89645         0.16959
C         40.23483        46.05477         0.11446
C         38.98026        46.73121        -0.24628
C         40.25602        48.74442        -0.93272
C         39.00697        48.10292        -0.64723
C         40.23897        50.13529        -1.45065
C         38.94397        50.93384        -1.40833
C         40.26632        53.01599        -1.41888
C         39.06673        52.39669        -1.29870
C         42.72748        20.27179        -1.03424
C         41.49792        20.96771        -1.23459
C         42.73633        23.09367        -1.11025
C         41.51857        22.36935        -1.28276
C         42.76583        24.52681        -1.07907
C         41.50233        25.29645        -0.98430
C         42.70543        27.39605        -0.67740
C         41.55810        26.69141        -0.42420
C         42.70816        28.89411        -0.86383
C         41.48507        29.57065        -0.30626
C         42.74742        31.69560        -0.19099
C         41.49231        30.96221        -0.16572
C         42.74349        33.11640        -0.00824
C         41.52497        33.83484         0.05117
C         42.75452        35.95546         0.29996
C         41.51567        35.24379         0.19200
C         42.74397        37.37881         0.46309
C         41.51137        38.05653         0.45611
C         42.76539        40.24874         0.96505
C         41.47745        39.49619         0.75832
C         42.73000        41.76538         0.91548
C         41.47309        42.47700         0.54785
C         42.75277        44.59063         0.04566
C         41.49603        43.92324         0.22858
C         42.76366        45.94139        -0.32423
C         41.56648        46.76255        -0.17189
C         42.75910        48.72142        -1.10692
C         41.50312        48.10147        -0.78208
C         42.75313        50.13272        -1.53758
C         41.50008        50.89434        -1.47080
C         42.76073        53.00134        -1.45820
C         41.50754        52.27695        -1.52970
C         43.91903        20.95263        -0.93363
C         45.20135        23.10505        -0.84673
C         43.97184        22.38070        -0.97243
C         45.20610        24.52070        -0.82402
C         43.97074        25.21484        -0.96716
C         45.24969        27.44183        -0.90186
C         43.95228        26.69066        -1.04050
C         45.21100        28.87929        -0.51463
C         44.00404        29.57008        -0.46713
C         45.21991        31.69087        -0.10357
C         43.97945        30.98901        -0.24314
C         45.21801        33.11042         0.05676
C         43.98691        33.82550         0.10518
C         45.22688        35.95884         0.34165
C         43.98615        35.24350         0.25644
C         45.22800        37.38456         0.46428
C         43.99761        38.10625         0.56593
C         45.25239        40.22634         0.64432
C         44.02984        39.51786         0.72699
C         45.30922        41.70699         0.71634
C         44.01865        42.52321         0.78346
C         45.23959        44.51175        -0.07994
C         44.00775        43.86924         0.19125
C         45.26131        45.89662        -0.46914
C         43.98586        46.53711        -0.96185
C         45.24094        48.75475        -0.96888
C         43.98062        48.04869        -0.97440
C         45.27938        50.17236        -1.09608
C         44.06827        50.91282        -1.51007
C         43.95946        52.37390        -1.36807
C         47.63185        23.06468        -0.55178
C         46.48281        22.41514        -0.81920
C         47.64179        24.50363        -0.10280
C         46.43028        25.27115        -0.59767
C         47.70640        27.38981        -0.36800
C         46.47123        26.65228        -0.62065
C         47.69123        28.83081        -0.29013
C         46.45653        29.55816        -0.30698
C         47.69671        31.68392        -0.05327
C         46.45431        30.97332        -0.14438
C         47.68636        33.10477         0.09796
C         46.45542        33.82093         0.15753
C         47.70066        35.95107         0.39230
C         46.45612        35.24349         0.29090
C         47.70246        37.37615         0.48524
C         46.46992        38.09167         0.48595
C         47.71067        40.24372         0.35126
C         46.47115        39.52371         0.49936
C         47.70422        41.63113         0.10002
C         46.51276        42.38504         0.20529
C         47.72548        44.49909        -0.20758
C         46.48470        43.78555        -0.01806
C         47.71371        45.91462        -0.33672
C         46.46471        46.60918        -0.51931
C         47.68899        48.76104        -0.63258
C         46.46525        48.04625        -0.72750
C         47.67221        50.17262        -0.70231
C         46.49149        50.86017        -0.92183
C         50.12310        24.56624         0.25859
C         48.95805        25.19792        -0.45986
C         50.14512        27.40047        -0.07154
C         48.91071        26.69742        -0.23828
C         50.16062        28.82613        -0.13360
C         48.92111        29.54194        -0.19452
C         50.17110        31.69273        -0.10384
C         48.92869        30.97346        -0.12211
C         50.14570        33.09373         0.03158
C         48.92383        33.81316         0.18044
C         50.16876        35.93628         0.57887
C         48.92640        35.23122         0.35727
C         50.13727        37.36082         0.78930
C         48.94588        38.08769         0.62468
C         50.16791        40.25309         0.47500
C         48.95914        39.53337         0.48913
C         50.22344        41.64113         0.11937
C         48.96248        42.30169        -0.38683
C         50.18657        44.49745        -0.20513
C         48.96164        43.79804        -0.19929
C         50.18955        45.92601        -0.27571
C         48.94997        46.63097        -0.36949
C         50.18077        48.73380        -0.45686
C         48.94645        48.05161        -0.47677
C         51.25189        25.26091         0.49645
C         52.58487        27.36711         0.23060
C         51.34773        26.68091         0.20044
C         52.60448        28.76817        -0.03201
C         51.41099        29.51720        -0.13655
C         52.65000        31.65854        -0.12909
C         51.43726        30.97348        -0.17460
C         52.71378        33.12514        -0.10462
C         51.39334        33.87140        -0.01672
C         52.66568        35.85032         0.87853
C         51.38098        35.24031         0.50911
C         52.68281        37.34087         1.16283
C         51.37751        38.08135         1.12155
C         52.68357        40.23670         0.65509
C         51.39979        39.58242         0.91826
C         52.68204        41.67966         0.48247
C         51.41690        42.35717         0.11786
C         52.65720        44.49796        -0.18513
C         51.44382        43.78639        -0.11950
C         52.67499        45.91746        -0.26695
C         51.42496        46.64174        -0.29259
C         51.38310        48.05198        -0.36672
C         55.03694        27.32645         0.49813
C         53.83228        26.67909         0.47365
C         55.13340        28.72584         0.20818
C         53.90874        29.41988        -0.20269
C         55.19796        31.62862         0.13932
C         53.94171        30.96232        -0.23887
C         55.18646        33.06480         0.38299
C         53.97213        33.79244         0.31797
C         55.15786        35.88249         0.86266
C         53.95227        35.17089         0.61871
C         55.14988        37.34453         0.90675
C         53.94766        38.04630         0.90207
C         55.27963        40.21540         0.36928
C         53.90721        39.46418         0.51403
C         55.28649        41.69011         0.34382
C         53.98570        42.41308         0.34072
C         55.20754        44.54538        -0.03907
C         53.96333        43.74885        -0.36824
C         55.13783        45.95823        -0.13914
C         53.92587        46.60709        -0.28160
C         56.32050        29.44052         0.29879
C         56.34622        30.85575         0.26390
C         56.37075        33.77294         0.69954
C         56.36335        35.14397         0.88752
C         56.39123        38.09114         0.94017
C         56.44836        39.44125         0.79139
C         56.43752        42.44750         0.31993
C         56.39102        43.86790         0.21804
O         28.99092        38.85982         2.60983
O         35.71217        35.54644        -0.81134
O         44.85447        42.33269         1.96917
O         31.33473        30.00167         1.95233
O         51.25725        38.98107         2.27564
O         40.66201        25.44803        -2.23144
O         52.69086        36.38949         2.26753
O         38.18032        32.46234         2.06773
O         41.97186        39.76837         2.10439
O         28.18110        28.97728         1.12782
O         33.48724        33.42952         2.44849
O         43.51712        50.38912        -2.76495
O         30.10987        31.38433        -1.06858
O         40.98540        46.70915         1.18199
O         54.57805        39.68149        -0.79566
O         32.00119        42.27866         2.43714
O         38.05132        42.03710        -1.06235
O         41.83918        42.27837         1.95919
O         53.36254        42.41098         1.65548
O         40.54469        40.81495        -1.07441
O         34.81020        42.21901         2.51676
O         34.06022        47.66976         1.25916
O         39.44281        50.35690        -2.66674
O         36.82783        30.04642         2.31148
O         35.70506        46.02930        -1.49308
O         28.12350        44.46990         1.22648
O         44.64863        27.21460        -2.23984
O         39.30339        25.45779         0.87845
O         54.03953        30.15741        -1.45860
O         52.12279        33.75378        -1.30485
O         54.04106        43.43996        -1.79811
H         54.16782        44.28450        -2.27950
O         37.28989        42.67578         2.36048
H         36.54414        42.83565         2.98738
O         35.16900        28.16200         2.45747
H         35.52106        28.89783         3.01378
O         40.30743        23.16345        -3.16327
H         40.66461        24.05722        -3.38901
O         40.06586        33.13096        -1.69528
H         40.18065        34.05918        -1.99318
O         49.16111        24.98860        -1.88761
H         49.98282        25.45578        -2.14690
O         48.96690        42.08966        -1.85330
H         49.77804        42.51393        -2.20692
O         43.90144        46.15012        -2.39584
H         44.57418        46.67500        -2.88074
O         42.61527        29.07135        -2.32175
H         43.34942        28.53441        -2.71204
O         47.56263        24.49748         1.35512
H         46.75361        24.00572         1.60877
H         27.16480        26.97835        -1.34883
H         25.84911        29.19325        -1.17022
H         25.82618        31.58009        -0.73544
H         25.75902        33.39067        -0.09197
H         25.72999        35.76381         0.38256
H         25.67343        37.57026         1.00676
H         25.66664        39.98007         0.86197
H         25.82032        41.58469        -0.32607
H         25.84583        43.90200        -1.10750
H         27.12328        46.06420        -1.50307
H         29.27318        25.79066        -1.19854
H         29.19140        47.34230        -1.35541
H         32.82640        23.52525        -0.77135
H         30.76097        24.76943        -0.65207
H         32.67038        49.78170        -0.89799
H         30.64942        48.47271        -0.87553
H         34.37675        22.68086        -1.17796
H         34.36623        50.82696        -0.61293
H         36.37670        21.46425        -1.77178
H         36.46610        52.00456        -1.10622
H         40.25650        19.16853        -1.34190
H         38.10555        20.34452        -1.40907
H         40.32606        54.11225        -1.35109
H         38.16899        52.99535        -1.08999
H         42.71793        19.17324        -0.98354
H         42.71234        54.09768        -1.38146
H         44.84626        20.37803        -0.80469
H         44.86528        52.96747        -1.18158
H         48.58499        22.51703        -0.57967
H         46.51639        21.34795        -1.07983
H         48.59988        50.74889        -0.60128
H         46.52164        51.95446        -1.00360
H         50.07335        23.49870         0.51677
H         50.21430        49.82833        -0.52671
H         52.10894        24.75463         0.96220
H         52.31137        48.63730        -0.36726
H         55.95704        26.77105         0.73134
H         53.81311        25.59960         0.67257
H         56.06502        46.54586        -0.06665
H         53.93558        47.70288        -0.34359
H         57.25352        28.90416         0.52445
H         57.31131        31.34239         0.46023
H         57.32860        33.24043         0.76292
H         57.31815        35.64852         1.08467
H         57.31726        37.55743         1.19402
H         57.38975        39.97218         0.99260
H         57.42152        41.96242         0.39364
H         57.32417        44.43837         0.33516
