         280
 CSIRO Nanostructure Databank - Neutral Graphene Oxide Data Set
C         30.59979        32.27548         1.05764
C         30.52671        33.35530         0.44174
C         30.42822        36.09491        -1.01965
C         30.55600        37.32509        -0.96039
C         30.58357        40.54935        -1.04253
C         30.49307        41.78525        -1.16825
C         32.96647        29.61500         2.10305
C         31.87595        30.21885         2.07599
C         32.88011        31.86107         0.62623
C         31.73337        31.43649         1.30978
C         32.83918        33.00450        -0.32948
C         31.53038        33.78865        -0.53200
C         32.88587        35.90936        -1.24449
C         31.56734        35.15956        -1.12953
C         32.91553        37.43451        -1.54071
C         31.63263        38.24264        -1.11787
C         32.91669        40.33636        -1.65255
C         31.66323        39.59936        -1.13346
C         32.97146        41.78067        -1.13832
C         31.47631        42.64703        -1.89207
C         33.06469        44.50842        -1.87203
C         31.96177        43.98795        -1.55965
C         35.75539        27.96251         2.30616
C         35.46290        29.29646         1.86772
C         34.27106        29.90570         1.63150
C         35.41004        31.88862         0.51345
C         34.16536        31.02646         0.57059
C         35.39252        33.09807        -0.12316
C         34.14921        33.68656        -0.78295
C         35.39405        35.93383        -0.71797
C         34.06643        35.23829        -0.50428
C         35.45890        37.37311        -1.21722
C         34.14041        38.12598        -0.89811
C         35.50353        40.32559        -1.01195
C         34.22813        39.58849        -1.35093
C         35.48714        41.80789        -0.87170
C         34.28758        42.49499        -1.36942
C         36.26149        44.79552        -1.13134
C         34.32983        43.80401        -1.78374
C         36.76712        46.11462        -1.04117
C         37.84913        27.54318         1.21208
C         36.62994        27.15785         1.95088
C         37.97725        29.06054         1.22011
C         36.77171        29.92506         1.48232
C         37.78597        31.60752        -0.14258
C         36.76597        31.38053         1.01259
C         37.87029        33.11902        -0.33495
C         36.63613        33.82553        -0.32892
C         37.84412        35.99454        -0.73750
C         36.57355        35.24573        -0.56887
C         37.85153        37.43513        -0.41867
C         36.64335        38.14528        -0.62620
C         37.65764        40.17774         0.41566
C         36.59976        39.52708        -0.43779
C         37.67184        41.72463         0.35291
C         36.45308        42.47847        -0.14667
C         37.02643        44.56491         1.20131
C         36.44826        43.96425         0.01909
C         37.69396        45.82933         1.19839
C         37.47465        46.43125        -0.04275
C         40.25392        24.64385         1.47748
C         39.21464        25.31274         1.38411
C         40.40833        27.33489         0.73603
C         39.04965        26.69865         0.94206
C         40.49398        28.87488         0.71029
C         39.17639        29.63365         0.53291
C         40.33789        31.56593        -0.57641
C         39.12558        30.90070         0.04822
C         40.34981        33.05662        -0.32162
C         39.09917        33.76983        -0.47413
C         40.43065        35.98977        -0.50998
C         39.12726        35.22945        -0.70363
C         40.29904        37.40680         0.04294
C         39.06596        38.12011        -0.05563
C         40.23900        40.21729         0.37562
C         39.02114        39.52153         0.22246
C         40.29544        41.67591         0.44688
C         39.00996        42.42564         0.41425
C         40.32497        44.52652         0.98291
C         39.28327        43.88515         0.08917
C         40.21922        45.84196         1.52001
C         38.79198        46.22530         2.14897
C         39.67802        48.27535         3.24912
C         38.84114        47.67978         2.53284
C         42.88012        24.63195         1.55541
C         41.56965        25.30865         1.76050
C         42.85153        27.11844         0.22724
C         41.56017        26.59302         0.80122
C         42.88720        28.60199        -0.12364
C         41.53419        29.34545        -0.32031
C         42.74193        31.49970         0.16584
C         41.63026        30.85007        -0.23597
C         42.63588        32.92746         0.62290
C         41.50175        33.72224         0.00910
C         42.79423        35.88852         0.37891
C         41.40830        35.19892         0.36734
C         42.73601        37.32961         0.94332
C         41.48642        38.07765         0.41629
C         42.69921        40.27078         0.14392
C         41.45354        39.48334         0.45387
C         42.73425        41.61304         0.88611
C         41.46460        42.39051         0.66089
C         42.79567        44.41437         1.44872
C         41.53660        43.80707         0.97853
C         42.67811        45.75833         2.05133
C         41.44039        46.48330         1.83498
C         42.09167        48.00016         4.07252
C         41.08278        48.32801         3.16581
C         43.92059        25.25175         1.31424
C         45.37002        27.25832         0.68756
C         44.22990        26.33723         0.35383
C         45.32408        28.70870         0.51588
C         44.13030        29.35056         0.18404
C         45.26451        31.62933         0.25153
C         44.01134        30.80516         0.62586
C         45.30001        33.01443         0.96069
C         43.94406        33.69066         0.74723
C         45.57172        36.16762         0.75043
C         43.77869        34.98846         1.08826
C         45.35868        37.46152         0.39208
C         44.07142        38.12738         0.75830
C         45.20436        40.27393        -0.12269
C         44.00765        39.56634         0.41033
C         45.16392        41.76533        -0.08170
C         43.93960        42.44694         0.47422
C         45.42931        44.07888         1.60806
C         44.00166        43.76938         1.17173
C         45.65298        45.34810         2.42079
C         43.57530        46.22751         3.06693
C         43.13893        47.33458         3.81204
C         47.73998        27.49848         1.14144
C         46.63514        26.86541         1.05509
C         47.87769        28.85752         0.88699
C         46.56065        29.51417         0.69125
C         47.82656        31.68053         0.69833
C         46.54321        30.88051         0.55408
C         47.70688        33.13621         0.25802
C         46.54094        33.80897         0.42516
C         47.74095        36.02826        -0.21854
C         46.44490        35.25681        -0.05751
C         47.59932        37.46572        -0.62466
C         46.44124        38.15393        -0.31958
C         47.55142        40.39780        -0.92255
C         46.35406        39.60691        -0.43553
C         47.62774        41.76307        -0.25526
C         46.48520        42.43986         0.01406
C         47.81746        44.54514         0.55028
C         46.38111        43.91221         0.37687
C         47.70208        45.49613         1.46174
C         46.85095        45.99132         2.34701
C         50.32816        28.98532         0.19759
C         49.07413        29.55143         0.51487
C         50.01348        31.53921        -0.65679
C         49.00152        30.92229         0.09628
C         49.64656        32.89499        -1.26201
C         49.05398        33.76872        -0.14375
C         50.10197        35.97176        -1.15557
C         48.99862        35.27417        -0.43826
C         50.07480        37.40173        -1.25479
C         48.75877        38.14431        -1.30488
C         50.05091        40.26886        -0.96779
C         48.85562        39.61471        -0.95235
C         50.20501        41.60539        -0.30886
C         48.95321        42.38330         0.13888
C         50.30611        44.38885        -0.06264
C         48.90020        43.94711        -0.30072
C         51.27058        29.55095        -0.42573
C         52.20132        31.65043        -1.66150
C         51.25295        30.85797        -0.93956
C         52.09200        32.82952        -2.03853
C         51.00275        33.82623        -2.22872
C         52.27046        36.05208        -1.90172
C         51.20765        35.19579        -1.60308
C         52.35129        37.31319        -1.86842
C         51.23348        38.13414        -1.61286
C         52.41236        40.39795        -1.44933
C         51.19546        39.61897        -1.81857
C         52.55067        41.58504        -1.13089
C         51.59039        42.32474        -0.31073
C         51.36117        43.76753        -0.23158
O         39.00478        44.38681        -0.98620
O         31.92651        32.75784        -1.46324
O         40.08158        31.41981        -2.05489
O         44.81933        35.62094         1.78359
O         41.49431        47.89844         1.83896
O         35.53166        44.37775        -2.20928
O         48.25496        38.08061        -2.82198
O         44.19829        39.14908         1.82737
O         37.78730        29.68501         2.53860
O         51.18021        41.56662         0.82637
O         38.52714        35.61457        -2.00369
O         35.19128        39.85375        -2.40134
O         38.07390        26.98264        -0.09484
O         44.20410        42.46123        -0.97490
O         38.22544        42.20629         1.63376
O         44.72988        45.59602         3.44631
O         48.71385        35.93518         0.87378
O         50.49083        33.97650        -3.41975
O         42.87881        27.56641        -1.16577
O         32.29355        35.19470        -2.38101
O         34.13324        30.29656        -0.68611
H         34.18683        30.94110        -1.42522
O         33.97648        38.10169         0.53806
H         33.22782        38.68564         0.78895
O         34.32865        33.45008        -2.18013
H         33.43849        33.48622        -2.60660
O         48.93644        42.41505         1.57198
H         49.86001        42.26281         1.88743
O         49.31790        37.69862        -3.70226
H         49.28869        36.70837        -3.71516
O         45.77052        42.99453         2.51816
H         45.36688        43.18344         3.39216
O         47.30382        40.68821        -2.33433
H         47.51867        39.87332        -2.85082
O         35.63109        37.25676        -2.63761
H         35.66667        38.17039        -3.01076
O         45.90956        35.19159        -1.41001
H         44.92368        35.29627        -1.37680
O         42.57174        40.46410        -1.28393
H         43.15879        41.21619        -1.55850
O         44.53232        25.71911        -0.89865
H         44.14414        26.27647        -1.61195
O         42.52427        37.20723         2.35834
H         42.87343        38.02466         2.78085
O         40.84976        35.24443         1.69376
H         41.31532        34.56856         2.24194
O         36.79792        43.99755         2.41984
H         36.47713        43.07713         2.31859
O         32.77884        40.35656        -3.08476
H         32.93086        39.43254        -3.40743
O         40.99170        29.24141         2.01497
H         40.29955        29.06510         2.68716
O         37.14795        32.20133         2.12898
H         37.68814        31.64325         2.73509
O         40.96679        36.15679        -1.85063
H         40.18105        36.26664        -2.44477
O         48.56318        44.02982        -1.67738
H         48.71390        44.94503        -1.99130
O         45.51706        32.79775         2.37016
H         45.50675        33.67551         2.81074
O         41.26285        31.94131        -2.72588
H         40.89354        32.67113        -3.28050
O         42.80273        41.39449         2.31206
H         43.45914        40.68219         2.49542
O         43.34989        35.96401        -0.95875
H         42.63486        36.19577        -1.60565
O         49.92507        33.62166         1.00448
H         49.77132        34.40479         1.58176
O         41.53403        25.83418         3.07009
H         41.68196        25.10804         3.71029
O         37.26585        39.84870         1.79094
H         37.88082        40.34048         2.38149
O         37.20452        31.02762        -1.33123
H         37.88473        31.03988        -2.04022
O         42.20128        32.80088         2.03842
H         42.69709        32.01800         2.40669
O         33.01196        37.60637        -2.96048
H         32.62580        36.79976        -3.37938
O         32.72682        41.73698         0.25418
H         32.76756        42.64591         0.61795
O         48.12801        31.73432         2.12725
H         48.96907        32.24459         2.20183
O         45.18997        31.85404        -1.17039
H         45.99675        32.33271        -1.46395
O         33.74876        35.34453         0.90880
H         33.89726        36.28387         1.18010
O         45.77882        44.59918        -0.71747
H         46.21867        44.30825        -1.54568
O         40.97431        28.98112        -1.58461
H         41.55605        29.31224        -2.29972
O         48.67949        32.71063        -2.26832
H         49.09902        33.01683        -3.12616
O         50.88182        39.91663        -3.17779
H         50.42499        39.14137        -3.58482
O         43.91104        30.73103         2.08324
H         44.73880        31.09705         2.47989
O         31.35505        42.52109        -3.24459
H         31.35156        41.57050        -3.50117
O         38.78349        45.48744         3.35477
H         38.06281        44.81482         3.34121
