         280
 CSIRO Nanostructure Databank - Neutral Graphene Oxide Data Set
C         30.38863        31.57398         0.84102
C         30.36157        32.80781         0.45330
C         30.23297        35.88843         0.08724
C         30.33767        37.12936         0.15716
C         30.30363        40.31937        -0.05796
C         30.23437        41.56376        -0.22506
C         32.81521        28.85243         1.40150
C         31.67090        29.36793         1.34674
C         32.80878        31.57776         1.15206
C         31.41567        30.74240         1.12667
C         32.73126        32.98047         0.53360
C         31.45569        33.62119         0.23138
C         32.64717        35.79610         0.20583
C         31.42145        35.00623        -0.35867
C         32.66073        37.28689        -0.16916
C         31.40516        38.05955         0.08567
C         32.65905        40.22859        -0.08296
C         31.41851        39.44766        -0.03617
C         32.65004        41.67137        -0.13714
C         31.36999        42.39095        -0.27719
C         32.61234        44.43895        -0.37205
C         31.55822        43.78285        -0.46664
C         35.58430        27.26157         0.95843
C         35.25521        28.64335         0.77705
C         34.09351        29.31547         0.97363
C         35.25976        31.55808         0.63769
C         33.95796        30.78080         0.49470
C         35.20317        32.93820         0.52847
C         33.94250        33.64191         0.36416
C         35.17775        35.88911         0.37313
C         33.96470        35.07548        -0.16578
C         35.28178        37.30266        -0.27864
C         33.94693        38.07260        -0.25717
C         35.09886        40.25530         0.22161
C         33.91064        39.54275         0.00129
C         35.12746        41.68736         0.11656
C         33.88590        42.38227        -0.07502
C         35.23258        44.53894        -0.57717
C         33.94562        43.88672        -0.15873
C         35.44478        45.73948        -1.40060
C         37.92723        27.11778         0.42625
C         36.60217        26.55589         0.90823
C         37.78022        28.65945         0.83342
C         36.51460        29.34955         0.21976
C         37.71365        31.53044         0.43235
C         36.52428        30.85020         0.49558
C         37.76344        32.99659         0.81334
C         36.48597        33.67948         0.33662
C         37.74372        35.94552         0.39798
C         36.49923        35.15889         0.15214
C         37.72456        37.29866         0.45598
C         36.41850        38.03431         0.40710
C         37.63196        40.26425         0.70431
C         36.33907        39.51566         0.57112
C         37.63100        41.75703         0.48219
C         36.36622        42.40187         0.07777
C         37.75832        44.20438        -1.12864
C         36.38816        43.53492        -0.92345
C         37.84152        45.53897        -1.86741
C         36.48264        46.07802        -1.98582
C         40.65485        24.49341         0.78446
C         39.63114        25.19508         0.97234
C         40.40395        27.24112         0.23551
C         39.23530        26.55362         0.92087
C         40.36041        28.73906         0.25845
C         39.07049        29.42447         0.54953
C         40.25774        31.64858         0.24163
C         38.96711        30.83237        -0.02278
C         40.12942        33.08322        -0.33739
C         38.98024        33.76059         0.36424
C         40.27615        35.94698         0.35553
C         39.02527        35.20304         0.76894
C         40.27873        37.37680         0.56651
C         38.95651        38.07353         0.89679
C         40.13898        40.32487         0.64204
C         38.89695        39.50847         0.30611
C         40.12051        41.77399         0.28052
C         38.93124        42.42325         0.16703
C         40.17325        44.56629        -0.41840
C         38.83704        43.92521        -0.08990
C         40.28698        45.59670        -1.30581
C         39.07709        46.31212        -1.75242
C         40.40112        48.25121        -1.59242
C         39.32590        47.66681        -1.98468
C         43.09028        24.56490        -0.24765
C         42.00354        25.14572         0.64620
C         42.94649        27.44719        -0.30918
C         41.72352        26.56640         0.00805
C         42.55915        28.76559        -1.01865
C         41.47380        29.54013        -0.32225
C         42.78386        31.66893        -0.36704
C         41.47282        30.89833        -0.28860
C         42.62905        33.17209        -0.46871
C         41.45216        33.83067        -0.23570
C         42.73387        35.91861         0.26830
C         41.43526        35.26237         0.01728
C         42.74813        37.38015         0.70497
C         41.45773        38.10215         0.59920
C         42.71748        40.34291         0.63848
C         41.42826        39.58463         0.73965
C         42.77345        41.76575         0.03507
C         41.38624        42.51140        -0.14978
C         42.68812        44.65471         0.10738
C         41.33624        43.99246         0.37501
C         42.80798        45.49694        -0.95182
C         41.64771        46.19240        -1.62492
C         42.59426        48.08664        -0.31873
C         41.63731        47.72542        -1.25410
C         43.92508        25.30795        -0.79881
C         44.93101        27.40307        -1.89555
C         44.02819        26.68145        -1.15754
C         44.72781        28.85668        -2.01167
C         43.79902        29.58332        -1.34177
C         45.20336        31.78194        -1.00615
C         43.83380        31.11463        -1.36746
C         45.16405        33.07449        -0.53940
C         43.91539        33.91630        -0.76209
C         45.21892        35.97790        -0.08429
C         43.99048        35.28633        -0.14461
C         45.15919        37.50481        -0.18950
C         44.11956        38.09205         0.77300
C         45.25492        40.36175         0.06168
C         44.02105        39.60814         0.60662
C         45.27631        41.80971         0.58393
C         43.97541        42.56737         0.67800
C         45.25446        44.82211         0.93669
C         43.86616        44.10125         0.90708
C         45.35709        46.17944         1.34358
C         44.52767        47.36454         1.30283
C         43.47367        47.62586         0.45038
C         47.38223        27.73000        -2.15153
C         46.30903        27.11786        -2.23656
C         47.79742        29.05814        -1.75440
C         46.69399        29.93641        -1.87169
C         47.67373        31.59121        -0.46924
C         46.50499        31.09465        -1.09953
C         47.66277        32.99648         0.01860
C         46.37646        33.77461        -0.04009
C         47.69653        35.95135         0.28360
C         46.42327        35.25953        -0.04241
C         47.73388        37.45040         0.21190
C         46.47876        38.23068         0.04754
C         47.78733        40.30432         0.52279
C         46.53037        39.57667         0.29464
C         47.79584        41.68637         0.79552
C         46.57927        42.56800         0.43523
C         47.73849        44.37999         1.86758
C         46.43747        43.89104         1.21682
C         47.72034        45.84049         2.01302
C         46.62585        46.42869         1.98087
C         50.19403        28.91111        -0.81552
C         48.91211        29.51812        -1.02254
C         50.05933        31.39441         0.26905
C         48.86968        30.83303        -0.44243
C         50.12637        32.95875         0.36966
C         48.96464        33.72974        -0.24908
C         50.22308        35.87203        -0.24884
C         49.01448        35.15539         0.35214
C         50.23533        37.37547        -0.36236
C         48.95266        38.23112        -0.28290
C         50.25300        40.23523         0.61110
C         49.03635        39.59165         0.40468
C         50.27173        41.57296         1.14738
C         49.03082        42.30083         1.19635
C         50.26344        44.10526         2.02098
C         49.00167        43.65937         1.67657
C         51.19700        29.34515        -0.20831
C         52.41598        31.43997         0.77704
C         51.37288        30.65518         0.31723
C         52.39442        32.72568         0.73621
C         51.43006        33.65721         0.44522
C         52.58746        35.97115         0.14682
C         51.56789        34.96693        -0.28355
C         52.64912        37.18050        -0.09353
C         51.55312        38.13834        -0.27900
C         52.67886        40.21101         0.86673
C         51.54317        39.54097         0.22127
C         52.63874        41.31590         1.42094
C         51.52194        42.19761         1.58192
C         51.39235        43.51727         1.99769
O         40.73885        26.60539        -1.05737
O         44.64731        42.03343         1.86096
O         37.68299        41.14399         1.84656
O         45.68079        29.56943        -2.76438
O         34.82578        44.59543         0.77394
O         43.46999        40.12538         1.85447
O         46.96318        33.25110         1.25146
O         47.69991        36.80860         1.51231
O         36.07641        38.58559         1.72059
O         46.72865        43.69241         2.63916
O         49.74342        32.13207         1.48612
O         40.03470        29.23857         1.63094
O         41.98697        46.02437        -3.05968
O         40.69172        40.03775         1.96455
O         36.57589        34.26838        -1.01316
O         33.19462        37.68497        -1.46322
O         50.08879        36.49828        -1.55135
O         42.73223        36.33283         1.70904
O         38.12381        44.24989        -2.53623
O         51.67687        39.23681        -1.19681
O         42.00071        28.40365        -2.30991
H         41.68913        29.22233        -2.74989
O         38.87610        38.12253         2.33831
H         39.54274        38.78778         2.64962
O         35.97976        42.96748        -2.19303
H         36.54806        43.37231        -2.89280
O         44.67134        37.86484         2.07571
H         44.10712        38.33366         2.72871
O         44.03468        45.82725        -1.44777
H         43.90814        46.39473        -2.23890
O         49.35347        35.00126         1.74056
H         48.59767        34.56353         2.19346
O         42.57450        25.36628         1.92158
H         42.70901        24.50329         2.36585
O         38.85467        39.33539        -1.13056
H         38.65352        40.19462        -1.55739
O         43.18425        41.52998        -1.32435
H         43.34245        42.39128        -1.76509
O         43.58727        27.79647         0.92031
H         43.61135        27.00024         1.50064
O         45.22995        40.40348        -1.38811
H         45.94599        41.01350        -1.67382
O         38.33902        44.52328         1.12658
H         39.03203        44.38498         1.81626
O         41.19534        42.70433        -1.58032
H         41.24740        41.82815        -2.02202
O         32.44612        35.73161         1.62789
H         33.30904        35.90391         2.08109
O         33.68429        30.70046        -0.91907
H         34.44398        30.25184        -1.35331
O         43.45252        31.53057        -2.70428
H         44.08221        31.10320        -3.32717
O         46.71921        42.87496        -0.97945
H         47.62784        43.20342        -1.14746
O         51.77726        34.63152        -1.65325
H         51.78944        35.46812        -2.17187
O         34.05704        35.02131        -1.59641
H         34.90776        34.56528        -1.81386
O         40.94669        44.01461         1.74986
H         41.76893        44.05930         2.30415
O         39.06319        35.25312         2.23956
H         39.05002        36.20808         2.50593
O         41.09760        46.80405        -3.88061
H         40.34477        46.18727        -4.05693
O         43.37248        31.46634         0.95139
H         42.71247        31.76018         1.61855
O         43.89463        34.18890        -2.21297
H         43.61974        33.34410        -2.65647
O         35.69085        37.15730        -1.64236
H         34.89923        36.84563        -2.14585
O         37.56655        28.73042         2.24563
H         38.42203        28.53676         2.68947
O         33.14074        31.73041         2.52896
H         32.54322        32.39198         2.93487
O         48.63047        38.58758        -1.65609
H         48.99484        37.88652        -2.24344
O         38.85117        30.63392        -1.46688
H         37.97524        30.18838        -1.63434
O         40.41838        31.85030         1.66406
H         40.44562        30.95101         2.07958
O         44.92703        48.38840         2.09393
H         45.72403        48.11487         2.60357
O         43.48645        44.23148         2.30987
H         44.05563        43.60102         2.81481
O         35.02836        36.02869         1.80223
H         35.60393        36.75607         2.13540
O         39.84236        33.06022        -1.75964
H         39.25006        32.29025        -1.95095
O         36.49889        29.22852        -1.22597
H         36.71342        28.28711        -1.45439
O         31.42785        34.96579        -1.75928
H         30.82768        34.25829        -2.07049
O         49.09889        33.76992        -1.68010
H         50.02303        34.03880        -1.91626
O         44.68021        37.78294        -1.52227
H         45.35793        37.50951        -2.17398
O         37.94212        27.04356        -1.00618
H         38.50059        26.28314        -1.28405
O         37.71787        33.03892         2.26859
H         38.64159        32.94782         2.59481
