         314
 CSIRO Nanostructure Databank - Neutral Graphene Oxide Data Set
C         30.88377        57.33583        -1.91505
C         30.78413        58.72097        -1.59931
C         29.56724        59.42433        -1.74923
C         30.58095        61.48904        -0.95354
C         29.47991        60.78566        -1.42904
C         33.51678        53.13260        -2.00816
C         33.42009        54.51652        -1.74039
C         32.24263        55.26116        -2.08262
C         33.29525        57.39294        -1.39897
C         32.09870        56.63046        -1.80573
C         33.15778        58.77238        -0.91289
C         31.92528        59.43811        -1.08909
C         32.98193        61.52113        -0.31911
C         31.83161        60.83311        -0.76816
C         35.73161        48.73843        -1.61742
C         35.72186        50.13785        -1.41561
C         34.72038        50.98046        -1.91626
C         35.60946        53.00567        -0.74607
C         34.62517        52.37389        -1.57463
C         35.52915        54.37840        -0.46058
C         34.48080        55.13999        -1.00915
C         35.45998        57.29069        -0.05341
C         34.52206        56.60724        -0.94310
C         35.44917        58.69679         0.02384
C         34.27608        59.43528        -0.36673
C         35.38436        61.53730         0.29611
C         34.20993        60.85192        -0.11283
C         38.02589        44.30447        -0.98592
C         37.63615        45.61160        -0.45592
C         36.72805        46.48821        -1.20487
C         37.27367        48.33266         0.29100
C         36.56538        47.83006        -0.87929
C         37.36690        49.79881         0.44408
C         36.74699        50.73802        -0.52386
C         37.90812        52.90571         0.45414
C         36.81538        52.23743        -0.34440
C         37.81945        54.37304         0.67970
C         36.44160        54.98680         0.59801
C         37.81863        57.27517         0.85636
C         36.48056        56.51198         0.62028
C         37.83451        58.71947         0.61664
C         36.62337        59.41158         0.43896
C         37.82260        61.53080         0.74798
C         36.60901        60.85513         0.48624
C         40.42369        40.09980        -0.65103
C         40.33986        41.47667        -0.42066
C         39.21231        42.21657        -0.76571
C         40.12352        44.24169         0.41455
C         39.06705        43.59189        -0.43037
C         39.94270        45.65297         0.89651
C         38.55167        46.21237         0.61621
C         40.13513        48.69411         1.88770
C         38.24781        47.61105         0.91984
C         40.15704        50.14638         1.95081
C         38.97758        50.89797         1.65520
C         40.22469        52.93331         1.34325
C         39.01007        52.20732         1.19040
C         40.23151        54.34540         1.12314
C         39.00589        55.07390         0.88660
C         40.28535        57.20765         0.58926
C         39.07261        56.52993         0.81282
C         40.30213        58.68153         0.54093
C         39.07874        59.40377         0.65147
C         40.27468        61.53355         1.02688
C         39.06190        60.84513         0.79084
C         42.96595        35.88606        -0.44984
C         42.91863        37.29909        -0.39780
C         41.69645        37.99811        -0.55487
C         42.87871        40.14541        -0.36057
C         41.65437        39.39677        -0.47397
C         42.78808        41.64632        -0.50677
C         41.54193        42.14673         0.21310
C         42.62510        44.38956         0.42102
C         41.48320        43.65967         0.25735
C         42.55710        45.86465         0.69431
C         41.20800        46.53903         0.96312
C         42.55567        48.54998         1.85819
C         41.23938        47.91465         1.59545
C         42.62732        50.07454         2.14322
C         41.38522        50.84623         1.95265
C         42.62469        53.01787         1.98410
C         41.39734        52.24329         1.75059
C         42.65591        54.41536         1.55211
C         41.46459        55.05147         1.19427
C         42.76118        56.85882         0.31941
C         41.49545        56.41822         0.70966
C         42.75682        58.96200         0.12747
C         41.49417        59.47448         0.51879
C         42.76684        61.50636         1.11838
C         41.51002        60.85967         0.92069
C         45.56073        33.20776        -0.76062
C         44.31610        33.80969        -0.68608
C         45.40826        35.96631        -0.24815
C         44.20575        35.21662        -0.47162
C         45.27975        37.31701         0.18460
C         44.11583        38.05441        -0.13618
C         45.32467        40.28212        -0.51215
C         44.10820        39.49787        -0.29114
C         45.29297        41.71557        -0.26594
C         44.02230        42.39290        -0.06704
C         45.14677        44.50476         0.49988
C         43.93855        43.73848         0.26695
C         45.09252        45.78641         1.01908
C         43.83429        46.52605         1.13507
C         45.06526        48.59103         1.87712
C         43.81802        47.84587         1.53177
C         45.07761        50.08130         1.81660
C         43.92752        50.78950         1.98956
C         45.18419        53.02220         1.83083
C         43.94235        52.27063         2.12990
C         45.18990        54.38057         1.60719
C         43.92819        55.20042         1.75937
C         45.18435        57.16274         0.78754
C         43.98920        56.43176         0.88526
C         45.20074        58.61982         0.39369
C         43.97653        59.46792         0.53261
C         45.26370        61.47161         1.17529
C         43.99793        60.82795         0.99398
C         46.73879        33.97833        -0.74013
C         47.85516        36.16614        -0.83741
C         46.68594        35.37209        -0.56266
C         47.85846        37.52939        -1.17494
C         46.62572        38.30696        -1.55601
C         47.74732        40.39673        -0.96344
C         46.53160        39.68388        -0.95491
C         47.71348        41.84070        -0.71770
C         46.45338        42.47108        -0.31680
C         47.66829        44.20567         0.98383
C         46.47852        43.95356        -0.00320
C         47.66650        45.65441         1.50318
C         46.35118        46.39146         1.57051
C         47.68801        48.62607         1.83029
C         46.37148        47.86647         1.88137
C         47.60560        50.05285         1.27542
C         46.40248        50.76676         1.86683
C         47.69321        52.98283         1.55452
C         46.44389        52.26843         1.86568
C         47.66134        54.36900         1.50654
C         46.42820        55.11659         1.44954
C         47.66306        57.27139         1.18082
C         46.41397        56.51848         1.20022
C         47.70877        58.61002         0.89614
C         46.48534        59.36758         0.56155
C         47.71730        61.46535         1.09060
C         46.47351        60.81209         0.93816
C         49.04247        38.29052        -1.16581
C         50.22454        40.40794        -0.87726
C         49.00863        39.71321        -1.10208
C         50.26921        41.73977        -0.44006
C         49.03001        42.54150        -0.41927
C         50.19227        44.34627         0.74717
C         49.00113        43.78035         0.38010
C         50.20239        45.68422         1.38049
C         48.93415        46.40752         1.52038
C         50.20509        48.60425         1.29874
C         48.98144        47.86084         1.70380
C         50.12414        50.06557         1.09001
C         48.89658        50.83480         1.40752
C         50.19958        52.96786         1.46281
C         48.93048        52.22098         1.46068
C         50.19157        54.34798         1.62288
C         48.92823        55.09565         1.69624
C         50.21565        57.30960         1.41764
C         48.92850        56.60149         1.58236
C         50.23905        58.65060         1.06764
C         48.98807        59.33115         0.56636
C         50.16296        61.49946         0.84741
C         48.95624        60.81101         0.90615
C         51.46160        42.37514        -0.06136
C         52.67067        44.42308         0.48579
C         51.46268        43.71344         0.39592
C         52.71591        45.80514         0.77349
C         51.49728        46.47928         1.29168
C         52.66434        48.67124         0.98119
C         51.41979        47.95618         1.16689
C         52.69135        50.07315         1.04267
C         51.43397        50.83153         0.98876
C         52.68854        52.90717         1.45339
C         51.45961        52.26473         1.33742
C         52.73627        54.34096         1.80738
C         51.42618        55.09324         1.92649
C         52.78402        57.31085         1.61989
C         51.45933        56.60430         1.82707
C         52.74439        58.73882         1.14280
C         51.44423        59.39631         0.99192
C         52.50475        61.38907         0.02591
C         51.40174        60.79092         0.65123
C         53.89057        46.53747         0.65945
C         55.12060        48.65756         0.81742
C         53.91066        47.95487         0.84469
C         55.15852        50.06802         0.95959
C         53.91969        50.78074         1.08126
C         55.17169        52.88295         1.32871
C         53.93574        52.19486         1.26367
C         55.15017        54.28112         1.66375
C         54.01649        55.07414         1.64299
C         55.24977        57.16546         0.54766
C         54.08474        56.54121         1.48264
C         54.91913        58.40140        -0.22929
C         53.87497        59.32157         0.28885
C         54.21287        60.84659        -1.64129
C         53.57445        60.56600        -0.45952
C         56.36551        50.79508         0.87063
C         57.57344        52.84507         0.43047
C         56.40219        52.20466         0.95513
C         57.65833        54.19222         0.01726
C         56.77080        55.17686         0.61699
C         56.89917        56.53098        -1.37346
C         56.28816        56.28060        -0.02939
C         56.61579        57.87207        -2.01717
C         55.50654        58.69333        -1.42322
C         56.21823        60.53532        -2.99360
C         55.06133        59.82610        -2.33498
C         58.53571        54.67684        -0.97228
C         59.26632        56.64686        -2.24868
C         58.31045        55.98195        -1.51057
C         59.14240        58.08070        -2.56425
C         57.80096        58.74841        -2.35463
C         58.57939        60.68636        -3.69856
C         57.50965        60.03684        -3.03039
C         60.09114        58.77373        -3.43529
C         59.81732        60.04180        -3.90630
O         58.78824        58.84775        -1.30868
O         43.24170        52.77287         3.32142
O         48.46221        48.43580         3.02383
O         39.85007        44.54246         1.84012
O         46.63055        51.45001         3.11590
O         41.84643        46.60982        -0.36470
O         52.17511        57.21675         2.94622
O         46.86861        45.68241         2.76177
O         42.79444        57.82498        -0.68750
O         45.67327        48.12394         3.14007
O         56.38443        54.89396         1.93097
O         45.99936        59.01139        -0.79413
O         56.09804        57.17090        -3.23366
O         52.10651        54.60173         3.11952
O         38.87108        48.13514         2.04872
O         51.07685        45.89001         2.56219
O         48.84586        55.95709         2.90029
O         48.42541        42.66065        -1.76470
O         56.11043        55.87865        -2.49556
O         53.82055        59.53738         1.72198
O         38.01944        52.75296        -1.03897
O         42.60901        49.10942         3.22647
O         55.23227        57.25751         1.98843
O         34.44449        57.21622        -2.28677
O         36.87650        56.95381         1.95113
O         37.73051        50.27665         1.72342
O         45.85592        37.93037        -2.42688
O         37.40902        45.40748         1.01407
O         50.65617        50.50156        -0.22945
O         38.14310        50.25881        -0.69044
O         43.90659        55.65624         3.15430
H         43.80311        54.84658         3.70746
O         42.60755        41.95818        -1.91860
H         43.38350        41.61336        -2.40843
O         47.32830        49.91848        -0.15378
H         48.17610        49.97993        -0.64551
O         47.48998        43.31507         2.10339
H         47.14857        43.86132         2.85356
O         41.63291        41.71614         1.59363
H         40.90780        42.14704         2.09478
O         49.07599        59.24778        -0.89837
H         48.18252        59.44093        -1.26109
O         35.79465        54.58848         1.85497
H         36.13296        55.20599         2.54503
O         54.22415        59.21983        -3.38021
H         54.68112        58.40180        -3.68797
O         46.75763        44.70290        -1.21400
H         47.39120        44.15798        -1.75010
O         46.25841        37.90488         0.92341
H         46.98634        37.26829         1.07990
H         29.98131        56.80338        -2.25149
H         28.68183        58.89398        -2.12806
H         30.49397        62.55898        -0.71654
H         28.52133        61.30700        -1.56168
H         32.72110        52.63917        -2.58551
H         31.38536        54.70938        -2.49732
H         32.91858        62.60182        -0.12185
H         35.03810        48.31533        -2.35972
H         33.92264        50.54822        -2.53884
H         35.35227        62.63065         0.41642
H         37.36533        43.81239        -1.71577
H         36.28883        46.09179        -2.13168
H         37.81644        62.62586         0.85527
H         39.53282        39.54547        -0.98335
H         38.39286        41.72576        -1.31279
H         40.25368        62.60899         1.25565
H         42.03272        35.31587        -0.55865
H         40.76889        37.43433        -0.73264
H         42.77117        62.57257         1.38797
H         45.63417        32.12274        -0.92037
H         43.40126        33.21240        -0.80675
H         45.28354        62.52894         1.47892
H         47.70416        33.50005        -0.95953
H         48.83045        35.65189        -0.79645
H         47.72073        62.53769         1.34085
H         50.01134        37.78367        -1.03314
H         51.16507        39.83876        -0.92246
H         50.17578        62.59912         0.88547
H         52.41854        41.84590        -0.17799
H         53.60195        43.91729         0.19049
H         52.40603        62.41308        -0.36421
H         54.82820        46.02180         0.40379
H         56.06279        48.10464         0.68987
H         53.96677        61.76848        -2.18907
H         57.29400        50.25134         0.64045
H         58.34367        52.16111         0.03714
H         56.00445        61.50035        -3.47816
H         59.39456        54.07882        -1.31049
H         60.23154        56.15530        -2.44698
H         58.40174        61.67067        -4.15417
H         61.01878        58.25997        -3.72497
H         60.57349        60.55476        -4.51811
