         210
 CSIRO Nanostructure Databank - Neutral Graphene Oxide Data Set
C         30.36357        31.75506         0.44969
C         30.42575        32.99785         0.32964
C         30.50944        36.14446         0.24699
C         30.42694        37.38381         0.26309
C         30.48447        40.37348        -0.29440
C         30.51077        41.54243        -0.73356
C         32.79486        29.03999         1.01201
C         31.63331        29.52627         0.78706
C         32.75532        31.63975         0.33499
C         31.50550        30.90983         0.53491
C         32.78868        33.03907         0.16586
C         31.56355        33.83522         0.17495
C         32.84296        35.95563         0.03378
C         31.59110        35.22293         0.12897
C         32.88252        37.36892         0.09734
C         31.67110        38.17268         0.66196
C         32.91031        40.27503        -0.29085
C         31.64256        39.62622         0.22530
C         32.86400        41.50621        -1.15155
C         31.59117        42.30160        -1.27081
C         32.98776        44.12539        -1.84460
C         31.83482        43.58641        -1.72563
C         35.48547        27.49788         1.57135
C         35.31246        28.88660         1.33380
C         34.08625        29.50733         0.98391
C         35.28074        31.66515         0.55301
C         34.06252        30.85288         0.20640
C         35.29725        33.05042         0.23061
C         34.04117        33.76688         0.01524
C         35.29515        35.89075        -0.38755
C         34.04047        35.16478        -0.11160
C         35.34597        37.35243        -0.25679
C         34.11676        38.07853        -0.13735
C         35.39559        40.16643        -0.48809
C         34.15982        39.48055        -0.32925
C         35.44509        41.57211        -0.76188
C         34.24051        42.21476        -1.31898
C         35.47110        44.39040        -1.27642
C         34.26432        43.68412        -1.52610
C         35.65979        45.79642        -1.39961
C         37.86647        27.45306         1.40520
C         36.57878        26.88989         1.56403
C         37.82986        28.89639         1.41536
C         36.56145        29.60236         1.36437
C         37.46742        31.92728         1.47418
C         36.41460        31.05432         1.13845
C         37.67216        33.15774         0.83798
C         36.54229        33.74265         0.22488
C         37.83762        35.91138        -0.01306
C         36.62539        35.12417        -0.27886
C         37.82953        37.30041        -0.06790
C         36.58362        38.02822        -0.23287
C         37.84390        40.18030        -0.19170
C         36.61799        39.45660        -0.29590
C         37.85550        41.59986        -0.28998
C         36.64497        42.29594        -0.63071
C         37.89506        44.45085        -0.60410
C         36.67249        43.72923        -0.85110
C         37.96363        45.89253        -0.74235
C         36.71658        46.41991        -1.17638
C         40.09477        24.64364         0.42096
C         39.14697        25.32427         0.87886
C         40.28608        27.36121         0.77892
C         39.04880        26.72341         1.08811
C         40.33187        28.79990         0.90911
C         39.15050        29.50839         1.29900
C         40.43374        31.63115         1.16859
C         39.36140        30.86764         1.61326
C         40.34076        33.14540         1.27319
C         39.04782        33.71866         0.63169
C         40.32561        35.93610         0.40723
C         39.08944        35.17245         0.20242
C         40.29415        37.34048         0.30523
C         39.06197        38.04658         0.10243
C         40.28825        40.19096         0.23786
C         39.06685        39.45900         0.03993
C         40.27777        41.63245         0.18360
C         39.08211        42.32853        -0.10847
C         40.30286        44.49524         0.00937
C         39.09086        43.76692        -0.22872
C         40.32709        45.93066        -0.02120
C         39.12950        46.60197        -0.44623
C         40.30553        48.75153        -0.24293
C         39.32982        48.01738        -0.46307
C         42.53039        24.63928        -0.49052
C         41.34908        25.19156         0.05359
C         42.66749        27.33253         0.07759
C         41.44176        26.62967         0.30516
C         42.84022        28.73628         0.63431
C         41.54492        29.51108         0.69455
C         42.79883        31.66075         0.43716
C         41.58687        30.92895         0.72331
C         42.77673        33.09160         0.44033
C         41.57625        33.81315         0.68031
C         42.77775        35.95500         0.35577
C         41.55247        35.22391         0.52040
C         42.76600        37.36843         0.37368
C         41.52453        38.07439         0.40650
C         42.74543        40.20933         0.85629
C         41.49428        39.48803         0.43768
C         42.72951        41.67437         0.52546
C         41.51635        42.35984         0.33683
C         42.73924        44.51353         0.43571
C         41.52035        43.79327         0.26438
C         42.72619        45.95528         0.47283
C         41.51681        46.65853         0.32582
C         42.81994        48.77510         0.40616
C         41.43187        48.22102         0.62420
C         43.56942        25.31945        -0.68495
C         45.06102        27.38225        -0.60398
C         43.82469        26.68650        -0.42918
C         45.16686        28.80871        -0.38212
C         44.00277        29.51692         0.06040
C         45.20354        31.67184        -0.12345
C         44.00118        30.94221         0.12124
C         45.21599        33.08681        -0.12487
C         43.98209        33.82061         0.10618
C         45.15504        35.99988        -0.33287
C         43.97815        35.22384         0.10755
C         45.22266        37.44868        -0.04916
C         44.00726        38.11633         0.27218
C         45.22172        40.23419         0.33828
C         44.00974        39.50955         0.42548
C         45.20073        41.65628         0.54697
C         43.95910        42.37387         0.57739
C         45.21097        44.48163         0.80129
C         43.96744        43.79982         0.57771
C         45.18912        45.94387         0.83469
C         44.01494        46.63587         0.65720
C         43.79956        48.04995         0.63186
C         47.38858        27.43936        -1.18536
C         46.28836        26.84920        -1.03669
C         47.58882        28.84010        -1.04223
C         46.39657        29.49860        -0.62322
C         47.64350        31.68881        -0.78858
C         46.51787        30.92309        -0.13962
C         47.66082        33.09320        -0.61307
C         46.44673        33.78099        -0.29042
C         47.72345        35.97991        -0.42227
C         46.48585        35.23177        -0.48493
C         47.68630        37.43611        -0.51479
C         46.42951        38.15757        -0.17564
C         47.69395        40.31136         0.11048
C         46.45490        39.56012         0.07958
C         47.65643        41.69135         0.37487
C         46.42200        42.36263         0.63966
C         47.66744        44.35755         1.62183
C         46.40773        43.75820         0.94945
C         47.59439        45.82609         1.21694
C         46.51898        46.43036         1.08643
C         50.10854        29.10266        -1.37790
C         48.79886        29.56166        -1.29091
C         49.79467        31.82282        -1.91550
C         48.74513        31.02359        -1.37622
C         49.82449        33.20889        -1.65760
C         48.84207        33.85063        -0.90226
C         50.30093        36.00894        -0.30719
C         48.99243        35.20056        -0.19904
C         50.24457        37.39644        -0.03193
C         49.01052        38.18064        -0.30143
C         50.15822        40.29200         0.32218
C         48.96559        39.61536         0.05888
C         50.16994        41.76251         0.06564
C         48.87405        42.56593         0.19924
C         50.08993        43.85396         2.01809
C         48.93848        43.61369         1.32282
C         51.32157        29.45772        -1.15642
C         52.55765        31.71476        -1.08909
C         51.77952        30.69814        -1.63924
C         52.55129        32.94582        -0.81526
C         51.78167        34.09731        -0.95801
C         52.59781        36.05169         0.40783
C         51.57148        35.29550        -0.22749
C         52.46364        37.27521         0.65941
C         51.38409        38.15221         0.43245
C         52.46923        40.22556         1.23688
C         51.37586        39.56660         0.61470
C         52.46691        41.42873         1.69130
C         52.40784        42.63174         2.32373
C         51.24980        43.24358         2.05263
O         45.63036        35.64004        -1.64145
O         50.93255        33.97030        -2.09222
O         48.45393        37.98998        -1.65076
O         50.88092        31.26629        -2.63855
O         38.40126        31.49616         2.41046
O         51.14687        42.31017        -0.42785
O         32.42704        40.49307         1.09380
O         39.25079        34.04250        -0.76329
O         33.62164        41.40565        -2.37943
O         36.00188        35.38002        -1.56823
O         34.18736        30.49582        -1.19620
H         33.37602        30.01268        -1.46198
O         40.28251        33.53116         2.67143
H         41.01330        33.08598         3.14840
O         46.89295        30.82889         1.29235
H         46.19015        30.31269         1.74412
O         42.76017        40.14576         2.33674
H         41.95342        40.60219         2.65806
O         47.44804        44.28698         3.02622
H         46.69990        44.87323         3.26289
O         31.81148        38.12727         2.07220
H         31.43470        38.94350         2.46199
O         48.98042        34.86022         1.24466
H         49.72301        34.24374         1.42279
O         48.71146        43.28436        -1.04879
H         49.61486        43.55460        -1.33254
O         43.22613        28.51917         2.05474
H         42.50720        28.00116         2.47718
O         41.07572        48.36231         1.97135
H         41.03708        49.31369         2.19870
