         344
 CSIRO Nanostructure Databank - Neutral Graphene Oxide Data Set
C          1.63536         1.87997        -1.58694
C          1.62536         3.27883        -1.71643
C          2.73925         1.22462        -1.06933
C          2.74580         4.04938        -1.36306
C          1.50587         6.20077        -1.34354
C          1.45243         7.60093        -1.22621
C          2.70694         5.49965        -1.39773
C          2.60354         8.39612        -1.14508
C          1.38902        10.52841        -1.39630
C          1.35829        11.89321        -1.49216
C          2.55023         9.80006        -1.00892
C          2.49754        12.72784        -1.08014
C          1.40037        14.91808        -1.71971
C          1.43813        16.26941        -1.72067
C          2.65985        14.08914        -1.75068
C          2.68600        16.99321        -1.61748
C          2.72352        18.39607        -1.71634
C          3.89725         1.95974        -0.68611
C          3.91728         3.38029        -0.87494
C          5.02860         1.30850        -0.14544
C          5.07762         4.10850        -0.48578
C          3.98128         6.25370        -1.38266
C          3.94898         7.78190        -1.48301
C          5.20029         5.53979        -0.84798
C          5.12862         8.48165        -0.82122
C          3.71508        10.50975        -0.34461
C          3.73479        12.02324        -0.58068
C          5.05619         9.82446        -0.55448
C          5.02899        12.72998        -0.64791
C          3.87093        14.84790        -1.25022
C          3.88764        16.26324        -1.34159
C          5.03836        14.14502        -0.85256
C          5.10493        16.99054        -1.13370
C          3.91406        19.09847        -1.56461
C          5.12393        18.42207        -1.26894
C          6.16108         2.03275         0.26735
C          6.14853         3.46239         0.13108
C          7.35994         1.35626         0.65623
C          7.28026         4.25313         0.64491
C          6.36088         6.31669        -0.36379
C          6.47192         7.76194        -0.81082
C          7.40026         5.68302         0.27363
C          7.53099         8.50331        -0.03417
C          6.25241        10.59693        -0.26482
C          6.21936        12.02612        -0.33795
C          7.46848         9.92136         0.03397
C          7.42938        12.76665        -0.10168
C          6.26388        14.87667        -0.65013
C          6.29492        16.29477        -0.81681
C          7.43764        14.18813        -0.25641
C          7.53287        17.02268        -0.67048
C          6.33876        19.13180        -1.08962
C          7.54240        18.47453        -0.79783
C          8.55661         2.03552         0.90711
C          8.53696         3.50767         1.05451
C          9.79554         1.37359         1.00783
C          9.81272         4.24497         1.07703
C          8.63377         6.37977         0.59907
C          8.65327         7.80952         0.46000
C          9.79563         5.68066         1.00185
C          9.83132         8.53261         0.85789
C          8.62374        10.66899         0.45820
C          8.57773        12.08055         0.37554
C          9.82754         9.97256         0.83092
C          9.73071        12.88169         0.79361
C          8.66366        14.93241        -0.08742
C          8.70322        16.34326        -0.35882
C          9.80310        14.27307         0.37630
C         10.03921        17.06167        -0.39124
C          8.74171        19.20164        -0.54856
C          9.95370        18.56382        -0.24227
C         11.01257         2.08299         1.15902
C         11.00867         3.53680         1.19351
C         12.23914         1.40053         1.20763
C         12.25634         4.24133         1.36789
C         11.02189         6.39857         1.26055
C         10.98995         7.82449         1.23963
C         12.24177         5.68629         1.46226
C         12.19464         8.57847         1.61225
C         11.03557        10.67772         1.07134
C         11.03857        12.13887         1.14050
C         12.26446        10.01427         1.31291
C         12.31894        12.82622         1.04216
C         11.09360        14.98137         0.40739
C         11.00387        16.47341         0.63781
C         12.35582        14.25959         0.74844
C         12.35105        17.15520         0.64793
C         11.14196        19.24619         0.06222
C         12.36184        18.58054         0.41224
C         13.47002         2.09539         1.32956
C         13.45391         3.52844         1.46213
C         14.70082         1.41243         1.26504
C         14.72578         4.22065         1.87881
C         13.49533         6.37085         1.58243
C         13.51490         7.83053         1.75691
C         14.72001         5.69554         1.57869
C         14.76774         8.56976         1.56703
C         13.50195        10.69682         1.37818
C         13.51653        12.13054         1.18750
C         14.75373         9.99013         1.49871
C         14.74715        12.86638         1.18958
C         13.56299        15.02513         1.11101
C         13.50272        16.46329         1.02064
C         14.74441        14.28874         1.27345
C         14.73935        17.23448         1.25053
C         13.57712        19.29327         0.50498
C         14.79334        18.65768         0.85845
C         15.94869         2.10461         1.23058
C         15.98481         3.52283         1.44412
C         17.13778         1.42842         0.90787
C         17.18241         4.23067         1.36901
C         15.95830         6.40473         1.51414
C         15.97751         7.84159         1.46872
C         17.19000         5.69097         1.45372
C         17.22499         8.54284         1.42537
C         15.99352        10.69651         1.42195
C         15.99654        12.13602         1.22858
C         17.23198         9.98774         1.42597
C         17.18705        12.81104         1.01525
C         16.09457        14.95512         1.49394
C         16.05547        16.47230         1.37001
C         17.10728        14.25332         0.55809
C         17.25909        17.19972         0.98985
C         16.02703        19.32051         0.91512
C         17.26807        18.60867         0.98656
C         18.36084         2.12743         0.79026
C         18.40177         3.53114         1.06635
C         19.54621         1.46909         0.35425
C         19.63432         4.23021         0.96602
C         18.40499         6.40489         1.41187
C         18.43421         7.81361         1.43745
C         19.70307         5.64578         1.52317
C         19.75386         8.53138         1.64583
C         18.47042        10.68474         1.35581
C         18.46561        12.18667         1.46431
C         19.71211        10.00832         1.31278
C         19.71648        12.85738         0.95869
C         18.45848        14.97216         0.50935
C         18.48846        16.47026         0.64788
C         19.71976        14.24489         0.75920
C         19.77029        17.14222         0.91774
C         18.53609        19.28521         0.95700
C         19.75268        18.59404         1.01657
C         20.70866         2.18718         0.12476
C         20.75252         3.57485         0.43561
C         21.88403         1.55114        -0.58703
C         21.98122         4.35076         0.02608
C         20.88659         6.40705         0.98922
C         20.92589         7.80720         1.00752
C         22.14413         5.59353         0.90090
C         22.08467         8.52438         0.67938
C         20.91284        10.70340         1.08277
C         20.93148        12.13197         0.92864
C         22.23197         9.96432         1.09649
C         22.16286        12.84210         0.74152
C         20.94567        14.97197         0.76156
C         20.94146        16.41077         0.89965
C         22.17566        14.25344         0.70989
C         22.23595        17.08944         1.27118
C         21.00728        19.27267         1.02486
C         22.22426        18.58238         1.02337
C         23.22261         2.15890        -0.22642
C         23.27205         3.54489         0.05371
C         24.40686         1.43644        -0.33128
C         24.50353         4.20618         0.18537
C         23.35302         6.35916         0.46533
C         23.21685         7.78935         0.02132
C         24.51062         5.66408         0.29209
C         24.53452         8.51972        -0.01195
C         23.35146        10.72425         0.39917
C         23.37737        12.09450         0.47377
C         24.46508         9.98866        -0.33581
C         24.70121        12.84216         0.46740
C         23.42486        15.00579         0.53737
C         23.43381        16.38506         0.70145
C         24.65250        14.32718         0.24435
C         24.76004        17.07676         0.81756
C         23.45188        19.25986         0.92402
C         24.68922        18.59454         0.77002
C         25.67073         2.08769        -0.27243
C         25.72377         3.49857        -0.05023
C         26.88127         1.37944        -0.51573
C         26.98211         4.17531        -0.16547
C         25.78681         6.40329         0.20037
C         25.70884         7.84914        -0.10295
C         27.05925         5.65059         0.00667
C         26.90884         8.55265        -0.68551
C         25.77868        10.70122        -0.22928
C         25.73783        12.16538        -0.46692
C         27.09119         9.96419        -0.11776
C         27.11606        12.83189        -0.32309
C         25.81393        15.06244        -0.20256
C         25.81679        16.45774        -0.07179
C         26.94869        14.27723        -0.76985
C         26.73552        17.49831        -0.72507
C         25.89348        19.28686         0.73719
C         27.06457        18.61337         0.23942
C         28.09405         2.04919        -0.62522
C         28.13673         3.47187        -0.47602
C         29.33860         1.33474        -0.91498
C         29.48561         4.16172        -0.54720
C         28.23973         6.37864        -0.53526
C         28.19615         7.76657        -0.73292
C         29.41738         5.65423        -0.82290
C         29.34432         8.45687        -1.20285
C         28.19463        10.65162        -0.90528
C         28.14914        12.03922        -1.10129
C         29.29580         9.89379        -1.39479
C         29.17011        12.66698        -1.82252
C         27.78252        14.72364        -1.73615
C         27.95747        16.89087        -1.33090
C         29.02773        14.09602        -2.26096
C         29.24517        17.03017        -0.90377
C         28.35078        18.96881         0.49391
C         29.54267        18.35377        -0.19241
C         30.43859         1.99003        -1.33352
C         30.36815         3.47601        -1.59591
C         31.70537         4.17340        -1.67171
C         30.56306         6.31342        -1.30042
C         30.53270         7.73010        -1.50307
C         31.76252         5.51601        -1.56795
C         31.64313         8.44766        -2.05456
C         30.41443        10.56286        -1.97347
C         30.34889        11.98202        -2.18816
C         31.57781         9.79721        -2.29497
C         31.45861        12.80106        -2.58970
C         30.29780        14.87981        -1.93615
C         30.37999        16.14798        -1.24504
C         31.45813        14.17252        -2.34410
C         31.60974        16.44722        -0.63639
C         30.75139        18.29492         0.69348
C         31.76198        17.44258         0.37477
O         10.15462        12.68192         2.19369
O          7.57601         3.99006         2.05966
O         15.37548        17.01737         2.56687
O         11.96350        14.55723        -0.69186
O          4.98475         5.71407        -2.32761
O         12.73914         8.25246         2.93772
O         27.58911        15.98356        -2.33968
O         26.67343         6.10302         1.35755
O         18.51821        15.81123        -0.70313
O          2.79995        12.72178         0.34953
O         10.61176        16.80781        -1.70108
H         10.00981        17.18498        -2.37541
O         22.82704         7.64182        -1.41198
H         22.96339         8.53579        -1.82238
O         26.54933         8.78126        -2.10425
H         26.69530         7.94415        -2.59460
O         16.54540        14.67384         2.84815
H         16.07068        15.30606         3.43647
O         25.16990        12.65612         1.84766
H         24.48331        13.02004         2.44707
O         25.29328        12.44613        -1.82280
H         24.61645        11.76394        -2.06152
O         19.92172         5.52448         2.98062
H         20.80980         5.09456         3.08180
O         14.73564         4.14148         3.35929
H         13.96203         4.65107         3.68385
O         25.17475        16.78495         2.21510
H         24.36607        16.90522         2.76982
O          3.45590        10.31924         1.08414
H          2.91939        11.09649         1.37143
O         27.49645         9.88568         1.27041
H         27.65485        10.81735         1.56041
O          6.95894         7.71164        -2.19937
H          6.43624         7.00502        -2.64896
O         10.40141        16.68710         1.93926
H         11.03547        16.40801         2.63203
O         28.91329        14.08333        -3.71836
H         28.55570        14.96224        -3.97345
O         29.90001        19.28796        -1.27890
H         30.72581        18.95076        -1.68684
O         21.76562         4.76159        -1.35410
H         22.23380         5.61825        -1.50329
O         21.69261         1.77864        -2.00174
H         21.65150         2.75432        -2.13103
O         22.63406         9.89742         2.52309
H         21.85631         9.52578         3.00816
O         18.48767        12.47179         2.93252
H         17.87073        13.22715         3.09926
O          2.91730        13.76568        -3.16002
H          3.00900        14.61202        -3.64669
O         29.70113         3.66372        -2.87865
H         30.23679         3.21622        -3.56588
O         16.53909        14.24826        -0.76688
H         17.06165        14.88998        -1.30695
O          4.07174         8.09315        -2.90905
H          4.60121         7.37368        -3.32121
O         24.07561        10.03417        -1.79514
H         24.85921         9.63058        -2.25789
O         27.60812        12.76662         1.03661
H         26.88009        13.05248         1.64264
O         30.13001         3.98535         0.74082
H         29.57970         4.43299         1.41738
O         20.04222         8.45359         3.08737
H         19.95547         7.49751         3.33610
O         25.93100        18.07374        -1.79480
H         25.93287        17.41888        -2.52727
O         22.44166         5.07636         2.25072
H         22.97860         5.75147         2.71831
O         22.36746        16.94718         2.74739
H         21.64022        17.46742         3.15313
H          0.74718         1.30634        -1.88683
H          0.72729         3.76859        -2.11708
H          2.73207         0.13243        -0.94506
H          0.55796         5.64548        -1.31977
H          0.46648         8.06382        -1.07848
H          0.52751         9.96523        -1.78455
H          0.49495        12.37544        -1.97179
H          0.43311        14.40183        -1.80384
H          0.50478        16.85010        -1.77797
H          1.79006        18.94113        -1.91974
H          5.02585         0.21218        -0.05587
H          3.92147        20.19395        -1.65751
H          7.36909         0.25639         0.62331
H          6.33053        20.22894        -1.17440
H          9.82534         0.27642         0.93051
H          8.69484        20.30192        -0.54294
H         12.24832         0.30282         1.13474
H         11.14950        20.34691         0.01889
H         14.69867         0.32013         1.13195
H         13.58738        20.36780         0.26813
H         17.11132         0.34729         0.70578
H         16.05846        20.40933         0.75946
H         19.50895         0.39269         0.12881
H         18.54683        20.38507         0.94858
H         21.89189         0.44440        -0.42699
H         21.01518        20.37136         0.95820
H         24.37288         0.35689        -0.54252
H         23.44077        20.35959         0.85887
H         26.84274         0.28957        -0.66212
H         25.93580        20.35771         0.98948
H         29.34559         0.24042        -0.79541
H         28.55427        19.79683         1.19089
H         31.36577         1.44329        -1.56676
H         32.61342         3.58722        -1.88282
H         32.72784         6.03078        -1.67980
H         32.56291         7.90597        -2.31386
H         32.44644        10.30239        -2.74009
H         32.39411        12.32944        -2.92252
H         32.41417        14.70681        -2.45491
H         32.46665        15.78141        -0.80317
H         30.86108        19.02832         1.50518
H         32.70518        17.46156         0.94044
