         291
 CSIRO Nanostructure Databank - Neutral Graphene Oxide Data Set
C          1.01176         2.34003        -0.38285
C          0.98378         3.59598         0.09150
C          2.28361         1.69318        -0.77818
C          2.26032         4.40134         0.24624
C          0.95148         6.45073         0.76747
C          1.02892         7.66451         0.21284
C          2.14527         5.61088         1.19541
C          2.39123         8.28995         0.04127
C          1.42999        10.39177        -1.08563
C          1.60643        11.58003        -1.67013
C          2.39353         9.83420        -0.06654
C          2.88700        12.38077        -1.62827
C          1.38758        14.58095        -1.19392
C          1.34207        15.94214        -1.03619
C          2.63143        13.89208        -1.45091
C          2.55915        16.73187        -0.77974
C          2.62115        18.20843        -0.90867
C          3.55174         2.28613        -0.25086
C          3.37773         3.44542         0.72601
C          4.78047         1.49103        -0.17735
C          4.69604         4.18695         1.06715
C          3.48363         6.36706         1.21003
C          3.20828         7.86387         1.30945
C          4.68393         5.69912         1.19730
C          4.39652         8.75292         1.50820
C          3.84008        10.38716        -0.29226
C          3.82605        11.93686        -0.42384
C          4.72805         9.89297         0.85858
C          5.26843        12.49273        -0.37642
C          3.74192        14.67948        -1.55437
C          3.87671        16.01571        -1.00235
C          5.61189        13.79250        -0.93483
C          5.17083        16.73259        -1.17159
C          3.75414        18.84605        -1.24314
C          5.09185        18.20240        -1.56266
C          5.96929         2.05178         0.25720
C          5.98410         3.41223         0.89273
C          7.18799         1.36980         0.01428
C          7.34583         4.11810         0.97906
C          6.01881         6.35374         1.27193
C          6.25016         7.58398         1.82277
C          7.21345         5.62811         0.71864
C          7.51857         8.40078         1.82593
C          6.02321        10.60211         1.10315
C          6.18959        11.94255         0.47451
C          7.32583         9.89958         1.44074
C          7.35676        12.76168         0.93184
C          6.46688        14.73143        -0.41025
C          6.37799        16.12389        -0.93993
C          7.38497        14.26539         0.68092
C          7.60082        16.97609        -1.18597
C          6.22673        18.96695        -0.91289
C          7.44047        18.40378        -0.74418
C          8.43743         2.05573        -0.06664
C          8.44881         3.44350         0.18332
C          9.61510         1.34729        -0.49770
C          9.67773         4.22408        -0.19802
C          8.51478         6.35998         0.64080
C          8.63953         7.76400         1.06113
C          9.76207         5.52914         0.59810
C          9.86154         8.46015         1.01603
C          8.56557        10.59042         0.83725
C          8.63231        12.07386         1.14011
C          9.86932         9.86374         1.07865
C          9.91843        12.77500         0.71425
C          8.68648        14.98000         0.90159
C          8.70064        16.38185         1.04430
C          9.91109        14.28400         0.84289
C          9.88295        17.13434         0.80486
C          8.53794        19.21460        -0.05150
C          9.83918        18.50338         0.28837
C         10.89415         1.95667        -0.56033
C         10.93699         3.36897        -0.08480
C         12.08043         1.30703        -0.89115
C         12.23804         4.08139        -0.05943
C         11.08100         6.19707         0.79133
C         11.16778         7.67538         1.14291
C         12.22439         5.57453         0.02559
C         12.31154         8.36399         0.50405
C         11.12681        10.63360         0.92645
C         11.13557        12.11088         1.41933
C         12.36362         9.80112         0.69190
C         12.43533        12.88163         1.12611
C         11.12464        15.00159         0.80783
C         11.11049        16.41354         0.77229
C         12.39450        14.24285         0.46250
C         12.36946        17.19031         0.79474
C         10.99405        19.16400        -0.02202
C         12.30708        18.64132         0.37297
C         13.37622         2.04301        -1.20037
C         13.49445         3.39562        -0.49280
C         14.69025         1.31371        -0.99393
C         14.73717         4.17175        -0.74482
C         13.45939         6.34175        -0.29881
C         13.63670         7.67353         0.39926
C         14.69819         5.69058        -0.91210
C         14.72461         8.53857        -0.28120
C         13.70053        10.25475         1.10618
C         13.64758        12.40077         1.46960
C         14.83145         9.82867         0.51353
C         15.01911        12.96329         1.20952
C         13.69228        15.00721         0.67013
C         13.74269        16.51702         0.77180
C         14.88901        14.36519         0.68255
C         14.62330        17.08767        -0.35809
C         13.56392        19.31275        -0.03082
C         14.72907        18.60567        -0.25555
C         15.88381         1.98531        -1.07779
C         15.90909         3.46312        -1.44094
C         17.14887         1.33662        -0.83849
C         17.21495         4.17816        -1.11746
C         16.02289         6.27286        -0.36454
C         16.04710         7.79485        -0.30706
C         17.20241         5.69132        -1.17018
C         17.21816         8.47314        -0.26364
C         16.10917        10.59765         0.69996
C         15.95509        12.10718         0.26313
C         17.26007         9.99373        -0.17435
C         17.33715        12.78100         0.34481
C         16.15081        15.06635         0.32734
C         15.98565        16.36963        -0.40630
C         17.42469        14.27181         0.18200
C         17.25265        17.11346        -0.69313
C         15.98401        19.26206        -0.37891
C         17.22007        18.58156        -0.46121
C         18.34618         2.02714        -0.77563
C         18.38937         3.48671        -0.91350
C         19.58192         1.33754        -0.49081
C         19.66841         4.16633        -0.77802
C         18.48384         6.34416        -0.72656
C         18.47635         7.78477        -0.63482
C         19.76642         5.64888        -1.06298
C         19.78455         8.52745        -0.64666
C         18.56393        10.58372         0.40558
C         18.42267        12.03449         0.75132
C         19.82862         9.94133        -0.09159
C         20.00957        12.87364        -1.02095
C         18.61867        14.90867        -0.49522
C         18.61466        16.41457        -0.77848
C         19.83348        14.30529        -0.72371
C         19.73838        17.13317        -0.08640
C         18.38943        19.21536        -0.02956
C         19.61108        18.51112         0.23059
C         20.75311         2.01500        -0.32691
C         20.81444         3.45250        -0.47186
C         22.06796         4.14929        -0.27215
C         21.00604         6.34848        -0.52503
C         21.03483         7.73323        -0.42965
C         22.15266         5.51218        -0.26581
C         22.21658         8.50580        -0.06184
C         21.08396        10.64531        -0.64725
C         21.08035        12.15315        -0.50395
C         22.26975         9.85970        -0.13016
C         22.13889        12.91714         0.12337
C         21.14048        15.10688        -0.66555
C         20.96852        16.47044         0.01520
C         22.20593        14.26515         0.01641
C         22.06162        17.17283         0.55473
C         20.72464        19.18196         0.79237
C         21.92465        18.50424         0.96850
O          6.60240        10.61571         2.46349
O         19.13685         8.37888        -1.92862
O         11.69118         3.46237         1.15286
O         16.45850        16.50544        -1.78874
O          4.92710        14.15903        -2.10986
O         14.50655         3.58125         0.56100
O         12.32815        18.24602         1.81573
O         17.16896        15.11626         1.39085
O          3.33030        16.18092         0.35590
O          5.32598         3.48883         2.19945
O          6.80628        13.77430         1.92586
O          7.66109         6.11997        -0.58442
O         12.34703         6.29435        -1.25240
O         13.70984        11.17389         2.16778
O          8.59473        16.54593        -1.75201
O         17.14603        10.41547        -1.50736
O         11.71150        10.56127        -0.42839
O         19.46951         9.87216         1.31937
O         10.46669         5.43749         1.86924
O          5.23988         8.25342         2.52579
O          2.91520         2.78836         1.92051
H          2.68529         3.48830         2.57794
O         19.40919        12.58471         1.50239
H         19.13591        13.48366         1.78001
O          1.88816         5.16679         2.54743
H          1.93053         5.97739         3.10582
O         21.59167        15.41213        -2.01132
H         20.85919        15.92763        -2.42873
O          7.80345         4.01985         2.35471
H          7.01574         3.79633         2.90676
O          9.58691         4.55553        -1.60834
H          8.79830         5.13978        -1.72349
O          8.34100        10.46077        -0.61470
H          9.13922        10.84511        -1.05518
O         17.09577         6.09579        -2.56119
H         17.94965         5.84455        -2.99204
O         10.87633        12.13910         2.82808
H         11.69316        11.86189         3.29501
O         14.41841        16.81217         2.01212
H         13.89995        17.51975         2.46503
O         16.51794        10.55016         2.08073
H         16.34410         9.65321         2.43482
O          3.20687        12.52636         0.75398
H          3.87167        12.57874         1.47420
O         11.45084         7.72285         2.59761
H         10.82430         7.08058         3.01275
O         10.07071        12.51784        -0.72917
H          9.50008        13.15604        -1.20938
O          4.40732         9.93088        -1.52385
H          4.12182         8.99804        -1.68038
O         20.98654        10.37530        -2.08756
H         21.74306        10.81916        -2.52591
O         14.63649         5.94922        -2.32909
H         13.72741         6.26397        -2.54243
O          5.24987        18.29853        -3.00826
H          6.14840        17.97941        -3.23798
O         15.71391         3.55338        -2.88271
H         15.63363         4.52059        -3.09313
O         14.33733         8.78065        -1.64149
H         15.06209         9.29793        -2.06043
O          1.92019        10.29529         1.22924
H          2.05724        11.27914         1.25044
O         12.35050        14.04108        -0.98319
H         11.75567        13.27248        -1.15934
O         15.37612        12.16272        -1.02600
H         15.96471        11.59473        -1.60857
O          2.37695         8.00537         2.49419
H          2.01962         8.92795         2.46984
O         18.98292        16.51974        -2.20086
H         18.18955        16.23546        -2.71156
O          3.12420         2.50529        -1.66105
O         15.66641        13.08071         2.49235
H         15.90469        12.16842         2.78371
O         19.09644        12.34732        -1.85570
H         19.31101        11.41038        -2.08236
O         16.22069         5.79663         0.97946
H         15.50279         6.16936         1.54888
O          3.00997         7.74051        -1.13715
H          2.85389         6.75790        -1.15855
O          3.49548        12.11744        -2.89279
H          4.32507        12.64255        -2.96009
O         19.83720         5.79576        -2.54453
H         19.84597         6.77601        -2.70886
O          7.54603        17.02425         1.39968
H          6.85432        16.36207         1.61183
O         14.10479         7.39566         1.76459
H         13.30585         7.36031         2.35354
O          2.62261         4.98514        -1.02891
H          2.74280         4.23158        -1.66638
O         13.25120         2.34880        -2.62649
H         14.12891         2.69699        -2.94264
O          7.96361         8.45445         3.21541
H          7.34310         9.06334         3.67833
O          7.98844        19.78887         1.14138
H          7.77701        19.04900         1.75202
O         13.92590        16.80533        -1.58489
H         14.60025        16.74379        -2.29895
H          0.08315         1.75847        -0.48171
H          0.02114         4.04843         0.36921
H          2.25311         0.62122        -1.06068
H         -0.03580         5.99649         0.94260
H          0.11718         8.20811        -0.07573
H          0.48534         9.84965        -1.24746
H          0.83798        11.95415        -2.36531
H          0.44778        14.01277        -1.25930
H          0.37293        16.46232        -1.03572
H          1.69778        18.78499        -0.74176
H          4.80358         0.52086        -0.69656
H          3.73382        19.94249        -1.34674
H          7.13787         0.32596        -0.33029
H          6.05634        20.01071        -0.60411
H          9.51133         0.28097        -0.75026
H          8.79507        20.07572        -0.72411
H         12.03160         0.24495        -1.18226
H         10.95346        20.12291        -0.56079
H         14.68685         0.23422        -0.77446
H         13.57456        20.41435        -0.06768
H         17.14790         0.25136        -0.65092
H         16.01119        20.35002        -0.20313
H         19.55698         0.24217        -0.39245
H         18.34468        20.28563         0.22548
H         21.68180         1.47318        -0.09579
H         22.96435         3.54821        -0.06002
H         23.11748         5.98559        -0.03550
H         23.11302         7.95831         0.26513
H         23.20091        10.37786         0.14271
H         22.95664        12.37642         0.62254
H         23.10157        14.77772         0.39267
H         23.04767        16.69633         0.63507
H         20.63672        20.24283         1.06668
H         22.79077        19.02892         1.39541
