         661
 CSIRO Nanostructure Databank - Neutral Graphene Oxide Data Set
C          6.42639        31.46929        -1.46140
C          6.45422        32.80080        -1.66340
C          8.29831        27.25032         0.54517
C          8.31408        28.77692         0.50181
C          7.29961        29.47252        -0.30753
C          8.60531        31.56173        -0.24184
C          7.41394        30.79988        -0.61465
C          8.68123        32.93261        -0.54421
C          7.41003        33.66587        -0.87581
C          8.86923        35.66654        -1.30121
C          7.64728        35.03056        -1.43541
C          8.94414        37.10184        -1.47627
C         11.05782        23.22293        -0.33757
C         11.07413        24.72052        -0.37610
C          9.75541        25.35184        -0.04459
C         10.89411        27.38650         0.70124
C          9.67496        26.63355         0.38594
C         10.87884        28.75652         0.89027
C          9.61295        29.50707         0.74549
C         10.93711        31.59400         0.57312
C          9.73036        30.90041         0.30457
C         11.03497        32.95135         0.18107
C          9.91719        33.62485        -0.40563
C         11.36845        35.66675        -0.83312
C         10.02750        34.97848        -0.81500
C         11.27506        37.17979        -0.69432
C         10.03129        37.82541        -1.06567
C         11.13948        40.06679        -0.87153
C          9.84216        39.31031        -0.86444
C         11.15959        41.42302        -1.13691
C         13.50829        18.95672        -0.66250
C         13.47701        20.39402        -0.41434
C         12.27860        21.08586        -0.37700
C         13.44744        23.20502         0.19832
C         12.22756        22.51282        -0.16947
C         13.41648        24.58874         0.54326
C         12.21188        25.33389         0.39942
C         13.33279        27.36812         1.25526
C         12.15300        26.67388         0.79549
C         13.31281        28.77718         1.45779
C         12.07951        29.50260         1.19874
C         13.10249        31.68929         1.95170
C         12.04832        30.90028         1.19457
C         13.09829        33.15700         1.49618
C         12.19773        33.72031         0.56031
C         13.43795        35.85188         0.58360
C         12.33815        35.07681         0.16421
C         13.73732        37.18214        -0.07952
C         12.42212        37.91883        -0.45015
C         13.53468        40.12034        -0.84282
C         12.37015        39.35426        -0.69314
C         13.59768        41.51789        -0.73724
C         12.36843        42.18939        -1.06898
C         13.66427        44.23831        -1.32749
C         12.43291        43.53035        -1.43815
C         13.73315        45.52882        -1.82928
C         15.96105        14.66807        -0.96010
C         15.93877        16.04072        -0.74277
C         14.72053        16.82325        -1.20431
C         16.00197        18.94655        -0.61976
C         14.66630        18.25782        -0.73110
C         15.93680        20.37678        -0.14613
C         14.71924        21.08805        -0.19691
C         15.86772        23.14826         0.52042
C         14.68636        22.49138         0.17254
C         15.80136        24.45799         1.16505
C         14.56876        25.24542         1.06891
C         15.77232        27.33447         1.72463
C         14.55656        26.62727         1.37988
C         15.70676        28.75334         1.96035
C         14.51586        29.48044         1.79118
C         15.64117        31.50046         2.88754
C         14.55382        31.02666         1.81129
C         15.75827        32.99741         2.94670
C         13.96154        34.06578         2.09950
C         15.51415        36.00999         2.10684
C         14.28507        35.32890         1.57477
C         15.66414        37.47637         1.80609
C         14.76071        38.02667         0.74168
C         16.18307        40.16751         0.63784
C         15.20680        39.16143         0.15290
C         15.84082        41.66378         0.59131
C         14.78295        42.25078        -0.34058
C         15.85716        44.49045        -0.16405
C         14.77963        43.62146        -0.60573
C         15.91615        45.81077        -0.64355
C         14.79699        46.47012        -1.39812
C         16.34539        48.30837        -2.00628
C         15.29578        47.47480        -2.40000
C         16.65101        49.52169        -2.69812
C         18.27788        10.33725        -1.23826
C         18.29340        11.72082        -0.81975
C         17.10596        12.49643        -0.92077
C         18.23871        14.51081        -0.03834
C         17.09702        13.88227        -0.62532
C         18.20898        15.89286         0.20892
C         17.06954        16.66245        -0.15839
C         18.23761        18.82754         0.65652
C         17.00389        18.10784         0.15844
C         18.30915        20.30727         0.55706
C         17.13366        21.02177         0.22680
C         18.38858        23.14545         0.79911
C         17.18533        22.51785         0.14426
C         18.37025        24.65009         0.86084
C         17.09061        25.20748         1.46182
C         18.27606        27.32402         1.82245
C         17.02426        26.66244         1.65734
C         18.26328        28.70881         2.32617
C         16.95349        29.42795         2.41298
C         18.14635        31.61010         2.47220
C         16.98478        30.90807         2.50518
C         18.19201        33.08817         2.78962
C         16.83196        33.72859         2.58447
C         18.01983        35.88039         2.67594
C         16.80268        35.16372         2.08470
C         18.05192        37.35505         2.38266
C         17.01632        38.14722         1.97900
C         18.10870        40.65209         2.21605
C         17.18595        39.62367         1.59917
C         18.10238        41.99544         1.85513
C         16.84673        42.60843         1.25735
C         17.57892        45.04750         1.43008
C         16.80524        44.04666         0.81767
C         17.75664        46.34352         0.88953
C         16.95736        46.69422        -0.24059
C         17.96744        48.96094        -0.11585
C         17.13913        47.94653        -0.86268
C         18.23672        50.23601        -0.88296
C         17.56494        50.45649        -2.19204
C         18.90535        52.50765        -2.47908
C         17.87257        51.61930        -2.90432
C         19.05901        53.75368        -3.15137
C         20.66900         6.12215        -2.18899
C         20.62402         7.51766        -1.96563
C         19.43822         8.21101        -1.73809
C         20.71396        10.22489        -1.03597
C         19.43906         9.58579        -1.33186
C         20.74347        11.51466        -0.24626
C         19.46590        12.31396        -0.33455
C         20.74286        14.37218         0.43206
C         19.39158        13.63141         0.41619
C         20.74418        15.85363         0.68735
C         19.42021        16.59412         0.72636
C         20.70264        18.73172         0.79702
C         19.48556        18.06757         0.71526
C         20.70008        20.17786         1.18514
C         19.46990        20.96653         0.97707
C         20.71084        23.05555         1.78826
C         19.50270        22.41059         1.11251
C         20.76767        24.55714         1.64845
C         19.59527        25.27374         1.46858
C         20.73523        27.35410         2.29390
C         19.51020        26.66709         1.74644
C         20.70261        28.83886         2.03563
C         19.50930        29.48717         2.19026
C         20.63944        31.71765         1.93489
C         19.50041        30.94227         2.55434
C         20.57623        33.12816         1.78911
C         19.34795        33.84178         2.14283
C         20.40533        36.02466         1.58689
C         19.28808        35.20735         2.13872
C         20.51265        37.42956         2.06437
C         19.37683        37.90347         2.64434
C         20.59002        40.57828         2.31115
C         19.36263        40.12574         2.70793
C         20.65083        42.00559         2.10554
C         19.36130        42.72235         2.08383
C         20.63279        44.83613         2.29667
C         19.41967        44.08517         2.36449
C         20.66085        46.21996         2.14510
C         18.81786        47.23422         1.29298
C         20.50266        49.02865         0.69766
C         19.20053        48.35494         0.57161
C         20.59878        50.33622         0.19255
C         19.50604        50.98877        -0.58312
C         20.72911        53.19971        -0.88464
C         19.79774        52.15258        -1.44611
C         21.05894        54.28809        -1.88342
C         20.12874        54.61982        -2.86317
C         21.48590        56.67189        -3.60835
C         20.15968        55.93746        -3.59847
C         21.68805        57.55314        -4.63439
C         23.15051         3.32542        -2.36033
C         21.93653         4.02222        -2.43055
C         23.13896         6.13903        -2.00851
C         21.89040         5.42268        -2.25832
C         23.13687         7.50096        -1.85080
C         21.89763         8.30045        -2.09968
C         23.15182        10.35356        -1.35831
C         21.89159         9.62557        -1.39297
C         23.09922        11.79977        -1.13155
C         21.95116        12.35469        -0.62475
C         23.08734        14.63203        -0.64135
C         21.98194        13.74201        -0.10578
C         23.16788        15.99651         0.00169
C         21.98713        16.63034         0.44222
C         23.14496        18.82342         0.30319
C         21.93977        18.03732         0.61544
C         23.18105        20.30410         0.64673
C         21.99703        20.92647         1.30179
C         23.22514        23.06987         1.51559
C         22.02529        22.40255         1.42191
C         23.23032        24.50020         1.76896
C         22.03348        25.23143         1.84152
C         23.19069        27.43466         1.85463
C         22.03422        26.68039         1.93267
C         23.15340        28.89223         1.75095
C         21.91915        29.58224         1.82264
C         23.02842        31.72460         1.32064
C         21.84743        31.01101         1.68046
C         22.98686        33.16942         1.23475
C         21.73987        33.85155         1.40945
C         22.99070        36.12234         0.98617
C         21.68568        35.32181         1.19366
C         23.00157        37.56409         1.51494
C         21.67841        38.31617         1.60253
C         23.11931        40.37659         2.33665
C         21.79211        39.67809         2.32091
C         23.14445        41.89169         2.61906
C         21.86168        42.64089         2.28217
C         23.09594        44.81497         1.90451
C         21.92208        44.12147         2.53821
C         23.01905        46.16931         1.59071
C         21.78582        46.95927         1.63811
C         23.02280        49.00633         1.03266
C         21.73922        48.30920         1.14698
C         23.13979        50.36050         0.34241
C         21.84760        51.14518         0.31457
C         23.28304        53.15432        -0.45764
C         21.94092        52.55681        -0.20714
C         23.43368        54.37356        -1.08935
C         22.26631        55.10761        -1.67326
C         23.89439        56.77102        -2.72305
C         22.46646        56.36480        -2.51405
C         24.23526        58.04065        -3.18076
C         22.75302        58.54013        -4.63965
C         24.62111        59.94662        -5.38196
C         23.45439        59.13650        -5.65551
C         24.35106         3.98098        -2.10544
C         25.60583         6.06965        -1.75648
C         24.39337         5.39049        -1.91753
C         25.66490         7.49477        -1.63551
C         24.36051         8.19463        -1.31031
C         25.59062        10.40304        -1.80572
C         24.33524         9.68163        -1.53996
C         25.59647        11.88567        -1.58860
C         24.35141        12.56676        -1.13638
C         25.67026        14.52740        -0.27539
C         24.38901        13.87186        -0.73750
C         25.61914        16.03215        -0.27852
C         24.42488        16.70553        -0.05934
C         25.60434        18.90294         0.05085
C         24.43297        18.15049         0.12058
C         25.60528        20.32502         0.33667
C         24.47248        20.97921         0.74665
C         25.73438        23.12612         1.08817
C         24.54936        22.28082         1.53357
C         25.79228        24.51941         1.60881
C         24.50718        25.21447         1.96445
C         25.72152        27.48625         1.55086
C         24.49706        26.74716         1.92970
C         25.69873        28.98026         1.76439
C         24.34478        29.63063         1.52551
C         25.45011        31.70046         0.73735
C         24.25634        31.00990         1.24633
C         25.39206        33.26996         0.63202
C         24.17767        33.91433         1.08673
C         25.48524        36.07608         1.10136
C         24.22086        35.35833         1.52003
C         25.55336        37.54723         1.42931
C         24.20408        38.25123         1.53954
C         25.50124        40.38340         1.51553
C         24.29543        39.67142         1.78026
C         25.57405        41.83396         1.87246
C         24.32831        42.62102         2.01850
C         25.55433        44.72325         1.66915
C         24.32317        44.02337         1.85352
C         25.54760        46.16677         1.37160
C         24.24789        46.89374         1.24581
C         25.49498        49.09758         1.55385
C         24.22386        48.36387         1.28985
C         25.52876        50.60533         1.33819
C         24.35052        51.22800         0.67826
C         25.66132        53.32652         0.32166
C         24.43246        52.49784         0.15183
C         25.89454        54.47711        -0.56588
C         24.77104        54.89170        -1.33769
C         26.76505        57.03002        -2.11249
C         24.91169        55.87235        -2.33092
C         26.65346        58.33907        -2.67399
C         25.50722        58.68668        -3.40638
C         25.49981        59.80351        -4.33508
C         26.85713         8.18176        -1.64031
C         28.14098        10.41364        -1.50491
C         26.90321         9.65205        -1.80233
C         28.16273        11.75895        -1.33451
C         26.91771        12.56088        -1.38634
C         28.09641        14.66509        -0.95833
C         26.93630        13.95036        -0.87401
C         27.99490        16.17063        -1.05472
C         26.94769        16.73123        -0.08849
C         28.03091        18.94772        -0.40924
C         26.87584        18.23819        -0.18224
C         27.96800        20.46431        -0.49632
C         26.93810        21.01544         0.50937
C         28.00234        23.34177         0.14350
C         26.81638        22.53532         0.51280
C         28.14044        24.72913         0.60367
C         27.01086        25.35535         1.33511
C         28.13166        27.56685         1.03700
C         26.93108        26.84245         1.32668
C         28.12430        28.97882         0.94088
C         26.87142        29.70061         1.13531
C         27.96927        31.84311         0.57445
C         26.76705        31.03804         0.84645
C         27.83626        33.26072         0.09806
C         26.64803        34.00694         0.55481
C         27.97257        36.16030         0.70758
C         26.64972        35.40883         0.72383
C         27.87065        37.63504         0.37130
C         26.51313        38.31682         0.50120
C         27.78746        40.52766         0.45851
C         26.61110        39.76964         0.92560
C         27.97404        41.93841         0.86585
C         26.83961        42.57592         1.57840
C         27.97899        44.74230         1.36443
C         26.78746        44.04917         1.54674
C         28.04599        46.12683         1.79983
C         26.75614        46.92890         1.77779
C         28.00980        49.07697         1.64087
C         26.80321        48.39766         1.62559
C         28.04760        50.51326         1.39641
C         26.86530        51.22420         1.20727
C         28.20946        53.29348         0.66414
C         26.91412        52.65596         0.91610
C         28.24547        54.59333         0.19336
C         27.13032        55.20152        -0.46481
C         27.36895        56.53186        -0.97364
C         29.45326        12.49251        -1.00465
C         30.52882        14.73917        -1.24335
C         29.37678        14.00649        -1.15591
C         30.56004        16.19344        -1.16215
C         29.31222        16.89997        -0.95592
C         30.49738        19.05390        -0.90304
C         29.27343        18.25993        -0.72405
C         30.49675        20.44812        -0.40401
C         29.32030        21.12214        -0.28420
C         30.55660        23.32547         0.01957
C         29.31515        22.59498        -0.17291
C         30.55073        24.71480         0.12348
C         29.32012        25.41215         0.44318
C         30.57437        27.57292         0.32931
C         29.44537        26.81960         0.98990
C         30.50006        28.96579         0.17412
C         29.29140        29.66025         0.50475
C         30.34417        31.79714        -0.44175
C         29.28249        31.13018         0.41974
C         30.38922        33.28807        -0.22846
C         29.10874        34.00512        -0.16028
C         30.28779        36.14662        -0.24084
C         29.12509        35.46431         0.00933
C         30.18423        37.61416        -0.60603
C         28.98578        38.31638         0.00303
C         30.29993        40.50941        -0.07941
C         28.99452        39.79964        -0.09813
C         30.25605        42.02095        -0.19665
C         29.08682        42.64528         0.53398
C         30.43606        44.79687         0.83160
C         29.09605        44.15655         0.56286
C         30.51605        46.12371         1.20673
C         29.34489        46.84727         1.75515
C         30.58663        49.03157         1.41302
C         29.31479        48.35491         1.77363
C         30.63178        50.51993         1.62598
C         29.32484        51.20964         1.29979
C         29.38571        52.53605         0.95308
C         31.76684        16.86816        -1.12055
C         33.07001        19.06715        -0.82764
C         31.82226        18.33270        -1.10458
C         33.07691        20.41631        -0.48806
C         31.80279        21.08023        -0.10379
C         33.06886        23.31789        -0.08838
C         31.82011        22.58527         0.12332
C         33.02867        24.73099        -0.12393
C         31.79640        25.43883         0.05790
C         32.97338        27.57343        -0.30086
C         31.77689        26.86291         0.03688
C         32.93565        29.01235        -0.36211
C         31.69655        29.70627        -0.18744
C         32.86510        31.86063        -0.36816
C         31.67443        31.11323        -0.29168
C         32.84597        33.30033        -0.33533
C         31.57338        33.99659        -0.28048
C         32.76736        36.14290        -0.32925
C         31.55810        35.44752        -0.34156
C         32.79388        37.62038        -0.40544
C         31.49998        38.37711        -0.49560
C         32.77807        40.48295        -0.02031
C         31.49460        39.82467        -0.16690
C         32.82905        41.98088        -0.26999
C         31.56725        42.71235         0.13187
C         32.90627        44.76440         0.53444
C         31.62557        44.05039         0.47228
C         32.90925        46.18452         0.75014
C         31.75267        46.86720         1.06746
C         31.72069        48.31628         1.17875
C         34.27282        21.18191        -0.42147
C         35.49634        23.34405        -0.40089
C         34.29009        22.59740        -0.27388
C         35.50007        24.75067        -0.44493
C         34.24177        25.45954        -0.33681
C         35.41275        27.56182        -0.88830
C         34.18435        26.85857        -0.48519
C         35.38033        29.07766        -0.88073
C         34.12040        29.75833        -0.55270
C         35.34018        31.90125        -0.55135
C         34.11453        31.17109        -0.46891
C         35.31914        33.33418        -0.40287
C         34.04550        34.01945        -0.29156
C         35.21282        36.18996        -0.00041
C         34.02521        35.45971        -0.21493
C         35.19152        37.59642         0.19698
C         34.00488        38.32947         0.06132
C         35.18366        40.44130         0.72861
C         33.94655        39.75679         0.18995
C         35.20916        41.92129         0.52424
C         34.09005        42.63984         0.24054
C         34.09077        44.07155         0.38103
C         36.71393        25.48813        -0.57874
C         37.89587        27.65471        -0.83210
C         36.72376        26.88725        -0.74268
C         37.90877        29.09316        -0.81602
C         36.64069        29.80564        -0.72974
C         37.82930        31.94889        -0.78015
C         36.57789        31.19279        -0.60384
C         37.77293        33.45282        -0.69682
C         36.50352        34.06780        -0.33292
C         37.74808        36.24930        -0.09961
C         36.50980        35.44700         0.26886
C         37.70330        37.59719         0.03877
C         36.48497        38.27490         0.60773
C         36.44878        39.74582         0.35653
C         39.10653        29.80759        -0.79077
C         40.31128        32.09417        -0.83782
C         39.12426        31.26536        -0.40432
C         40.26604        33.44781        -0.83247
C         39.04343        34.20163        -0.57441
C         38.99128        35.55521        -0.40116
O         31.06894        18.94893        -2.25234
O         20.05901        16.09564         1.95269
O         26.59434        42.06116         2.93715
O         21.99907        56.46571        -1.13516
O         28.95583        31.78996         1.68230
O         35.29247        28.30078        -2.14388
O         26.02206        53.49915         1.72158
O         18.23389        44.76316         2.62931
O         26.15931        56.03170        -2.92921
O         21.73562        52.28023         1.23013
O         26.23906        12.58345        -2.71014
O         28.46060        23.18120        -1.22843
O         24.60972        25.98417         3.19504
O         21.99781         8.63149        -3.62076
O         26.82010        24.71309         2.64440
O         21.73087        13.75761         1.33421
O         32.31233        38.15040        -1.71123
O         18.20094        51.34428         0.07697
O         29.55154        47.57890         3.00471
O         14.73634        39.46047        -1.13157
O         15.18841        36.99498         3.12985
O         25.28714        50.04551         2.66866
O         16.46987        24.43361         2.50783
O         14.57365        33.66424         3.28436
O         19.34022        38.99160         3.49958
O         19.49886        46.90205         2.45793
O         22.57574        39.64776         3.53664
O         25.22660        32.35433        -0.52046
O          8.59759        29.34797         1.81773
O         26.22921        10.03086        -3.07228
O         17.56414        28.83174         3.63093
O         37.78176        32.72078        -2.00136
O         28.18482        33.53599        -1.30767
O         28.00422        40.37234        -1.03845
O         31.85743        21.62579         1.25290
O         22.86029        19.87112        -0.71726
O         21.41030        20.30009         2.49620
O         27.28609        46.40471         3.02453
O         25.00284        46.45462         0.02699
O         17.15303        18.39417         1.57097
O         23.14711        58.91401        -3.33335
O         20.70103        35.75083         0.16765
O         24.87676        21.85878         2.83806
O         17.49608        39.75447         0.12683
O         15.62982        42.16585         1.95514
O         14.10197        47.32465        -0.38534
H         14.78958        47.90701         0.01201
O         25.77509        14.13928         1.14888
H         26.45119        14.74664         1.54306
O         22.66825        14.90544        -2.02624
H         23.41318        15.34871        -2.48642
O         27.38625        20.69660         1.85177
H         26.67204        21.03180         2.46189
O         17.99517        35.76707         4.10991
H         17.11514        36.06168         4.42733
O         19.94873        53.86079         0.15894
H         20.12052        53.36252         0.99364
O          9.17077        39.51743         0.39777
H          9.74519        39.16993         1.11070
O          6.73190        33.90344         0.42220
H          6.63927        33.03011         0.86130
O         32.89082        42.10210        -1.73230
H         31.97303        41.98323        -2.07387
O         18.35125        25.15295        -0.53363
H         19.25905        25.06255        -0.89523
O         23.20801        36.19197        -0.44065
H         22.33129        36.29048        -0.87442
O         14.36401        36.81808        -1.34680
H         14.64385        37.66228        -1.77610
O         23.37137        42.00696         4.06473
H         22.97323        41.19928         4.47388
O         36.56090        35.26434         1.72236
H         36.60020        36.17647         2.11294
O         21.31319        38.65426         0.23149
H         21.07529        37.81479        -0.22630
O         39.13032        31.27644         1.06983
H         39.94421        30.81987         1.37012
O         29.84570        37.58547        -2.02589
H         30.70156        37.57690        -2.51791
O         15.10084        31.44603         0.54084
H         14.54608        31.07153        -0.17511
O         29.86216        26.66145         2.39404
H         29.13264        26.20856         2.87134
O         20.91043        11.15135         1.16981
H         21.83724        10.85545         1.29654
O         24.24488         8.06169         0.16271
H         24.29645         7.10363         0.37102
O         17.05780        49.32182         0.98383
H         17.29618        50.24358         1.24831
O         20.54103        22.81862         3.22115
H         20.79538        21.87646         3.38775
O         18.41150        33.17071         4.22839
H         19.11379        32.51113         4.45781
O         26.14226        37.61829         2.77278
H         25.49697        37.19199         3.38276
O         19.64994        55.78489        -4.92779
H         20.20543        55.13262        -5.40116
O         14.75073        16.86163        -2.64837
H         15.49711        17.45650        -2.89283
O         20.84869         9.41676        -3.96614
H         21.19119        10.34372        -3.94748
O         27.48180        16.44257        -2.39250
H         28.14213        16.12262        -3.04232
O         20.65237        27.23893         3.75658
H         20.70330        26.28512         3.98372
O         30.54169        11.95256        -1.75439
H         30.32248        12.02097        -2.70616
O         22.13284        44.33087         3.98513
H         22.73220        43.60454         4.30321
O         17.07538        35.05511         0.65379
H         16.34236        34.55860         0.23144
O         17.30094        22.80217        -1.31534
H         17.50779        23.76879        -1.38796
O         24.14396        35.42519         2.98782
H         24.74845        34.74858         3.36002
O         19.10209        13.24967         1.78900
H         19.87937        12.72330         2.09391
O         11.94826        35.44187        -2.16722
H         12.85685        35.83517        -2.14293
O         11.33171        25.07444        -1.80042
H         11.45232        26.04756        -1.83422
O         36.58456        38.06955         2.08435
H         35.91481        38.69155         2.47557
O         29.94905        31.56811        -1.83087
H         29.22940        32.21938        -2.03609
O         28.78906        44.55403        -0.82947
H         29.29705        43.93640        -1.41750
O         31.72162        51.11668         0.92171
H         31.59248        50.96549        -0.03663
O         25.93431        38.29771        -0.82662
H         26.52641        38.82928        -1.40676
O         16.55396        18.98879        -1.98911
H         16.20981        19.79887        -2.42367
O         30.01848        42.25389        -1.64748
H         29.24477        41.67827        -1.87826
O          7.41238        26.73046        -0.45111
H          7.85408        26.77590        -1.32355
O         12.70191        31.61816         3.32976
H         13.34618        32.14003         3.86248
O         15.27375        30.99857         4.17903
H         15.52229        30.05202         4.24184
O         27.47233        20.79647        -1.81237
H         28.14249        20.52740        -2.47429
O         19.79773        30.90368         4.01230
H         19.23610        30.18860         4.39375
O         35.04251        40.28491         2.23424
H         35.66584        40.92577         2.64160
O         27.40132        16.39567         1.26936
H         26.99472        17.03722         1.89089
O         28.39120        36.15206         2.12091
H         27.71166        36.68189         2.61671
O         25.91517        29.15278         3.21383
H         25.43771        28.43071         3.67860
O         23.31543        49.98247        -1.07526
H         23.97980        49.26154        -1.12564
H          5.66383        30.84301        -1.94924
H          5.69910        33.28835        -2.29763
H          7.87720        26.94074         1.53710
H          6.45758        28.88210        -0.69923
H          6.77282        35.60747        -1.77346
H          8.02273        37.63229        -1.76117
H         10.13385        22.70181        -0.62983
H          8.83282        24.80539        -0.29396
H          9.15778        39.71880        -1.65082
H         10.22186        41.94319        -1.37944
H         12.54603        18.44136        -0.80993
H         11.33529        20.55040        -0.56136
H         11.53962        44.05265        -1.80841
H         12.85193        45.94969        -2.33668
H         15.08753        14.17519        -1.41136
H         13.78825        16.27724        -0.91126
H         14.64067        47.78061        -3.22952
H         16.12707        49.74654        -3.63860
H         17.31309         9.88943        -1.51835
H         16.19598        12.03168        -1.32749
H         17.31416        51.85435        -3.82201
H         18.33909        54.03570        -3.93221
H         19.72593         5.55525        -2.22412
H         18.47441         7.68449        -1.81495
H         19.43125        56.60971        -3.06305
H         20.94754        57.56095        -5.45209
H         23.15167         2.23551        -2.50268
H         21.00152         3.47236        -2.61007
H         24.87755        60.69789        -6.14658
H         23.13507        59.01507        -6.70032
H         25.28924         3.40952        -2.05806
H         26.54867         5.50632        -1.83321
H         27.47184        59.06781        -2.56883
H         26.39016        60.45214        -4.32800
H         27.80534         7.62365        -1.70161
H         29.08254         9.84804        -1.41970
H         29.21592        55.10876         0.13733
H         28.07970        57.16145        -0.41718
H         29.68884        12.29220         0.08018
H         31.48953        14.20879        -1.32863
H         30.83518        50.68766         2.72222
H         30.36899        53.02247         0.86983
H         32.71029        16.30187        -1.10433
H         34.02708        18.54679        -0.98584
H         33.86216        46.72690         0.66035
H         32.66421        48.86179         1.02167
H         35.22542        20.67231        -0.63065
H         36.44715        22.80223        -0.51339
H         36.12502        42.45286         0.83346
H         35.05126        44.59291         0.51270
H         37.66912        24.94192        -0.56303
H         38.86589        27.13515        -0.80471
H         38.60127        38.20675        -0.14731
H         37.39254        40.30443         0.47678
H         40.06047        29.25718        -0.80794
H         41.26248        31.57997        -1.04581
H         41.18114        34.02391        -1.04150
H         39.91744        36.15061        -0.42214
