         324
 CSIRO Nanostructure Databank - Neutral Graphene Oxide Data Set
C          1.32122         3.55742        -0.76661
C          0.08332         4.18073        -0.99929
C          1.22143         6.29885        -1.49727
C          0.00693         5.49709        -1.40512
C          1.16601         7.81203        -1.26348
C         -0.10482         8.52045        -0.95981
C          1.09896        10.67592        -0.68167
C         -0.12845         9.84288        -0.71381
C          1.07613        12.05078        -0.07130
C         -0.16013        12.73809         0.41439
C          1.10984        14.85063         0.39687
C         -0.11921        14.07430         0.60742
C          1.08723        16.31882         0.38710
C         -0.15790        17.04724         0.30234
C          0.95995        19.21754         0.67092
C         -0.22156        18.40763         0.34230
C          0.97287        20.69640         0.36843
C         -0.19848        21.51149         0.73720
C          1.08252        23.62007         0.68135
C         -0.12277        22.87120         0.85461
C          1.13561        25.02022         0.81371
C         -0.05317        25.81715         0.93565
C          1.22263        27.88659         0.74393
C         -0.01452        27.18704         0.88987
C          1.26150        29.30925         0.65006
C          3.77835         3.57820        -0.75197
C          2.55681         4.22865        -0.98710
C          3.71292         6.39400        -1.36053
C          2.52998         5.64124        -1.31019
C          3.71474         7.81597        -1.11123
C          2.40536         8.44880        -0.65505
C          3.64339        10.55628        -0.28854
C          2.42418         9.95588        -0.97431
C          3.63203        11.94779         0.27452
C          2.31688        12.68293         0.55997
C          3.56726        14.88477         0.09744
C          2.29754        14.16969         0.27532
C          3.55580        16.34880         0.31624
C          2.28789        17.03194         0.40337
C          3.54177        19.25914         0.41082
C          2.29571        18.48794         0.64773
C          3.56255        20.63723         0.39135
C          2.29433        21.40147         0.22174
C          3.56131        23.48939         0.98599
C          2.36231        22.93177         0.21275
C          3.62956        24.99505         0.80155
C          2.41615        25.70877         0.76330
C          3.67380        27.83658         0.62152
C          2.43373        27.14586         0.70649
C          3.69785        29.26563         0.52351
C          2.45583        29.97835         0.52893
C          6.32446         3.60553        -0.91902
C          5.01613         4.14641        -1.23366
C          6.26753         6.44261        -1.64654
C          4.97298         5.68595        -1.61942
C          6.19245         7.93337        -1.42243
C          4.89255         8.55958        -1.08943
C          6.12996        10.62697        -0.44983
C          4.93337         9.93951        -0.66523
C          6.11334        12.02529        -0.03934
C          4.91169        12.67275         0.21208
C          6.11247        14.86134         0.52666
C          4.87686        14.14916         0.14025
C          6.01635        16.32683         0.69906
C          4.75173        17.02082         0.35546
C          6.08923        19.22317         0.11580
C          4.77533        18.48506         0.17691
C          6.04296        20.67161         0.35135
C          4.82136        21.37216         0.43869
C          6.06917        23.48560         0.63095
C          4.84797        22.78083         0.62926
C          6.10968        24.93063         0.74057
C          4.88133        25.66484         0.76831
C          6.11727        27.81309         0.63372
C          4.90085        27.11029         0.66504
C          6.15154        29.23208         0.46924
C          4.92930        29.93736         0.41676
C          8.75754         3.64004        -0.95297
C          7.52578         4.30935        -1.11596
C          8.74283         6.44828        -1.38653
C          7.55139         5.73478        -1.40056
C          8.70470         7.94250        -1.44015
C          7.43947         8.65660        -1.09526
C          8.65993        10.83580        -0.82427
C          7.40318         9.98095        -0.73297
C          8.59470        12.13964        -0.03906
C          7.36944        12.76353         0.14375
C          8.55627        14.84563         0.94507
C          7.29782        14.15844         0.58492
C          8.58829        16.38781         0.98137
C          7.30569        17.12800         0.80785
C          8.58410        19.17726         0.13199
C          7.37728        18.51557         0.33024
C          8.46827        20.63276        -0.00642
C          7.27601        21.35685         0.33656
C          8.53324        23.48937         0.35124
C          7.29520        22.78057         0.43169
C          8.58238        24.91224         0.55418
C          7.36894        25.60502         0.73485
C          8.67033        27.83949         0.72754
C          7.37393        27.08272         0.86411
C          8.62971        29.25093         0.26775
C          7.39703        29.91110         0.26741
C         11.19872         3.61562        -0.88919
C          9.98792         4.32521        -1.01411
C         11.23956         6.43701        -1.07416
C         10.00633         5.76498        -1.16805
C         11.27888         7.91497        -1.22325
C          9.98363         8.68738        -1.24385
C         11.17639        10.81855        -0.46984
C          9.90168         9.98904        -0.45429
C         11.06902        12.10898         0.25214
C          9.84971        12.78354         0.34016
C         11.00883        14.90943         0.97300
C          9.83869        14.16547         0.75901
C         11.04845        16.34493         0.91566
C          9.85334        17.08557         0.70551
C         11.17327        19.05592         0.22441
C          9.87235        18.45492         0.30050
C         11.39545        20.35433        -0.31700
C          9.52255        21.44181        -0.42875
C         11.02816        23.41449         0.06960
C          9.68530        22.78571        -0.06093
C         11.00870        24.89870         0.02565
C          9.86478        25.58667         0.37856
C         11.16498        27.79758         0.09989
C          9.94132        27.06207         0.55316
C         11.05811        29.22353        -0.29866
C          9.81357        29.88727        -0.17768
C         13.64580         3.55965        -0.67102
C         12.43648         4.28272        -0.80408
C         13.70664         6.38003        -0.60363
C         12.46293         5.72610        -0.84100
C         13.79656         7.85451        -0.64919
C         12.54928         8.64792        -0.92698
C         13.59768        10.64679         0.33240
C         12.50056        10.11632        -0.54853
C         13.60001        12.08770         0.67749
C         12.27617        12.69386         0.83914
C         13.55050        14.88239         1.28810
C         12.25786        14.18787         1.21931
C         13.51798        16.30719         1.28053
C         12.31729        17.01512         1.04140
C         13.55591        19.16773         0.87096
C         12.34920        18.43228         0.77545
C         13.61060        20.55505         0.55296
C         12.44932        21.17940         0.02239
C         13.63887        23.40080        -0.05056
C         12.34402        22.66849         0.07894
C         13.58896        24.80660        -0.49927
C         12.24626        25.57528        -0.41394
C         13.49782        27.68528        -0.72948
C         12.33050        27.03319        -0.39346
C         13.44757        29.13212        -0.96554
C         12.19434        29.82956        -0.82795
C         16.08191         3.48404        -0.28504
C         14.86225         4.21154        -0.41305
C         16.07550         6.27718         0.22124
C         14.87414         5.64793        -0.28249
C         16.11200         7.69769         0.47513
C         14.99271         8.50998        -0.04268
C         16.05296        10.53615         1.03659
C         14.83234         9.85428         0.57458
C         15.95555        11.93324         1.44942
C         14.72988        12.72983         1.17913
C         16.02370        14.85377         1.89332
C         14.74068        14.15003         1.42516
C         16.05625        16.32373         1.53778
C         14.76568        17.03008         1.58355
C         16.08571        19.25796         1.38266
C         14.76122        18.53610         1.43017
C         16.10327        20.73565         1.12098
C         14.90350        21.27879         0.37579
C         16.10700        23.45494         0.00719
C         14.83106        22.77969         0.21477
C         16.09813        24.93923        -0.20391
C         14.81826        25.60205        -0.50079
C         15.98144        27.68976        -1.06283
C         14.76841        26.97359        -0.77195
C         15.93461        29.16893        -1.38783
C         14.57087        29.78611        -1.40361
C         18.52587         3.41549         0.16859
C         17.26382         4.11778         0.09932
C         18.41378         6.10175         1.07955
C         17.22126         5.50391         0.46253
C         18.42910         7.62454         1.34465
C         17.22242         8.37176         0.96109
C         18.50550        10.49737         1.33057
C         17.23797         9.81624         1.13797
C         18.53294        11.91597         1.36698
C         17.30664        12.68019         1.62583
C         18.47759        14.81532         1.19983
C         17.28811        14.13147         1.49116
C         18.48176        16.25707         1.08274
C         17.25779        17.01697         1.27703
C         18.49506        19.12155         0.72278
C         17.31056        18.45336         1.17245
C         18.54001        20.53593         0.47171
C         17.42300        21.46959         0.89478
C         18.54643        23.35143        -0.41645
C         17.28238        22.74700         0.06613
C         18.63041        24.85476        -0.71060
C         17.39107        25.71193        -0.50482
C         18.29828        27.76067        -1.81021
C         17.23402        27.06932        -1.10474
C         17.93998        28.79474        -2.76700
C         16.72143        29.44192        -2.63467
C         19.69149         4.04967         0.50833
C         20.87377         6.13153         1.19503
C         19.70689         5.42348         0.92545
C         20.88418         7.53499         1.38354
C         19.72887         8.31439         1.34952
C         20.93940        10.50196         1.19312
C         19.73396         9.76419         1.28871
C         20.94394        11.88206         1.09660
C         19.74078        12.63345         1.17648
C         20.89600        14.80043         0.80031
C         19.71113        14.07709         1.05939
C         20.88034        16.16938         0.62904
C         19.67795        16.92312         0.74080
C         20.83290        18.98571        -0.02047
C         19.67875        18.34812         0.48691
C         20.85945        20.34669        -0.24688
C         19.72392        21.14673         0.03416
C         21.00493        23.24640        -0.16702
C         19.79682        22.59616        -0.16600
C         21.09744        24.66110        -0.32632
C         19.98896        25.42473        -0.57151
C         20.63222        28.03017        -2.54180
C         19.67569        27.49473        -1.67531
C         20.22824        28.84900        -3.61864
C         18.90869        29.23267        -3.73201
O         16.87701        25.63293         0.85397
O         16.02062        20.27662         2.49199
O         11.67342        23.00752         1.37184
O          8.08797        27.60933         2.05010
O          4.90407         4.67425        -2.61604
O         14.56580        17.93198         2.74226
O          3.62172        10.74190         1.17252
O          5.40419        18.82083        -1.13599
O          1.53625        20.95206        -0.97186
O         12.14781         8.39281        -2.30660
O         12.03249        10.93987        -1.65277
O          6.28104         7.36489        -2.78521
O         18.47605        23.89276        -1.79705
O         20.17177        26.79749        -0.56163
O         10.48589        20.85596        -1.24153
O         18.20799         6.66370         2.41930
O         13.72310         9.83039         1.56698
O          8.56604        15.59707         2.20003
O         12.08778        13.14789         2.22392
O          1.26011         7.30511        -2.59601
O         10.94443        27.51004         1.53492
O          4.28899        14.56243        -1.17024
O         16.52279        12.18367         2.77458
O         14.93692        20.68885        -0.93971
O          6.45231        16.91914         1.98662
O          1.62220        18.86091         1.91692
O          9.38657         8.63734        -2.56742
O         14.88986         8.40317        -1.49673
O         12.74098        24.99706        -1.68067
O          1.04915        11.89081        -1.52634
O         15.97865        14.80380         3.36021
H         16.03516        13.84953         3.61065
O          9.75408         9.54894         0.92362
H          9.80157        10.33315         1.51275
O          3.30867        23.22621         2.39656
H          4.06094        23.58278         2.91391
O         17.85934        21.99727         2.18484
H         17.42608        21.43753         2.87495
O         16.65858        29.85107        -0.28791
H         16.29289        29.50869         0.55574
O          2.55104        23.33131        -1.16571
H          2.01700        22.71141        -1.71426
O          8.78368        11.25113        -2.20213
H          8.92766        10.43703        -2.74723
O          2.11485        12.60807         2.00028
H          2.50219        11.75781         2.31058
O          2.27014         8.26073         0.77144
H          2.93170         8.82564         1.23069
O          2.66470        10.05691        -2.38739
H          2.26541        10.89943        -2.70282
H          1.34390         2.50209        -0.46080
H         -0.83902         3.59376        -0.88668
H         -0.96106         5.95441        -1.64794
H         -1.05111         7.96292        -1.01703
H         -1.09059        10.35114        -0.55388
H         -1.10298        12.18254         0.52105
H         -1.03060        14.60400         0.91896
H         -1.07695        16.48376         0.08730
H         -1.16417        18.92047         0.10123
H         -1.13835        20.99599         0.98153
H         -1.03071        23.40480         1.17133
H         -1.02945        25.32072         1.01842
H         -0.94749        27.76612         0.95021
H          0.31404        29.86714         0.67191
H          3.79504         2.61003        -0.23252
H          2.47304        31.07503         0.45071
H          6.37538         2.59509        -0.48730
H          4.94130        31.03165         0.30445
H          8.75723         2.55495        -0.77571
H          7.36686        30.98127         0.01178
H         11.17184         2.51829        -0.81986
H          9.75031        30.93964        -0.49492
H         13.62175         2.46158        -0.73171
H         12.15512        30.88927        -1.12277
H         16.08213         2.40294        -0.48863
H         14.51850        30.86279        -1.62712
H         18.54306         2.35375        -0.11729
H         16.42733        30.24611        -3.32455
H         20.64433         3.50055         0.48084
H         21.83855         5.60494         1.15279
H         21.86541         8.02229         1.47233
H         21.90031         9.97113         1.15691
H         21.90873        12.39284         0.98191
H         21.85518        14.27432         0.71195
H         21.83085        16.67386         0.41648
H         21.73187        18.40243        -0.25568
H         21.76914        20.80418        -0.65764
H         21.93378        22.69249         0.02416
H         22.07116        25.15444        -0.21528
H         21.69359        27.80017        -2.38390
H         20.97909        29.22361        -4.32757
H         18.59828        29.95142        -4.50324
