         344
 CSIRO Nanostructure Databank - Neutral Graphene Oxide Data Set
C          1.41686         3.49162        -0.31101
C          0.18245         4.13058        -0.41509
C          1.19733         6.26670         0.21321
C          0.07616         5.50199        -0.18926
C          1.15952         7.72553         0.18858
C         -0.05723         8.43511        -0.04372
C          1.14253        10.55374        -0.29454
C         -0.06868         9.79435        -0.23354
C          1.13685        11.95227        -0.50631
C         -0.05273        12.72890        -0.54597
C          1.20517        14.85205        -0.46773
C         -0.02989        14.10581        -0.57721
C          1.18021        16.30830        -0.37766
C          0.01051        17.05872        -0.43247
C          1.21110        19.21356        -0.61091
C          0.01443        18.46415        -0.48671
C          1.22151        20.65703        -0.70857
C          0.02993        21.41785        -0.77024
C          1.26568        23.52209        -0.65020
C          0.05344        22.80353        -0.78085
C          1.27864        24.96048        -0.50572
C          0.11386        25.76455        -0.84509
C          1.14807        27.78037         0.16714
C          0.07153        27.09497        -0.62450
C          1.31376        29.24464        -0.15197
C          3.84407         3.58966         0.13496
C          2.55190         4.21168         0.11806
C          3.57320         6.31085         1.01575
C          2.41795         5.58679         0.46348
C          3.58058         7.82604         0.76604
C          2.35919         8.46579         0.23661
C          3.62912        10.56364        -0.07574
C          2.38415         9.85573        -0.06729
C          3.67546        11.94508        -0.40106
C          2.42041        12.66946        -0.83503
C          3.71921        14.84264        -0.27186
C          2.40033        14.13518        -0.46140
C          3.60118        16.24834        -0.91032
C          2.48719        17.05691        -0.21121
C          3.65979        19.21724        -0.78527
C          2.45069        18.51592        -0.62711
C          3.68444        20.62741        -0.81039
C          2.47333        21.35182        -0.71660
C          3.71647        23.46389        -0.34199
C          2.49092        22.79139        -0.60058
C          3.69602        24.86818         0.00427
C          2.44940        25.60513        -0.09057
C          3.62626        27.69243         0.47218
C          2.46147        27.02994         0.14171
C          3.69411        29.13842         0.42282
C          2.49101        29.87096         0.04336
C          6.24394         3.59353         0.52916
C          4.98465         4.23334         0.59143
C          6.13324         6.38281         1.36422
C          4.84847         5.52453         1.36966
C          6.11835         7.84173         0.98672
C          4.85825         8.52262         0.61417
C          6.10590        10.58924         0.17738
C          4.86230         9.85954         0.20821
C          6.09537        11.97100        -0.05203
C          4.89443        12.64126        -0.38663
C          6.18236        14.84241        -0.51735
C          4.91998        14.07801        -0.86949
C          6.18554        16.24644        -0.61511
C          4.94221        16.97582        -0.96786
C          6.19289        19.17910        -0.56130
C          4.94173        18.46977        -0.91788
C          6.19952        20.55969        -0.58616
C          4.98988        21.37032        -1.02169
C          6.13485        23.39200         0.01322
C          4.96388        22.76276        -0.39316
C          6.08206        24.73505         0.62210
C          4.84942        25.50669         0.43733
C          6.13624        27.65189         0.80760
C          4.82176        26.91782         0.96698
C          6.14278        29.07324         0.75091
C          4.89750        29.78976         0.58293
C          8.66411         3.52747         0.89215
C          7.44228         4.21101         0.90870
C          8.64918         6.37875         0.82072
C          7.47560         5.63073         1.44020
C          8.61353         7.77927         0.55425
C          7.38752         8.51279         0.60858
C          8.59870        10.58992         0.08704
C          7.36289         9.88347         0.31974
C          8.61241        11.99217        -0.01302
C          7.34319        12.74411         0.28145
C          8.60012        14.85209        -0.15339
C          7.36734        14.16184        -0.20497
C          8.60297        16.26984        -0.20206
C          7.38082        16.98535        -0.37615
C          8.62245        19.10401        -0.05926
C          7.39601        18.42007        -0.34550
C          8.67298        20.52625        -0.08895
C          7.47750        21.25959        -0.47498
C          8.68110        23.40867         0.30502
C          7.44581        22.77936        -0.19798
C          8.66480        24.78783         0.67568
C          7.37127        25.46724         0.93348
C          8.57810        27.65053         0.96866
C          7.35880        26.95616         0.91067
C          8.59443        29.07734         0.92922
C          7.36244        29.76624         0.79842
C         11.12842         3.61854         1.19176
C          9.89834         4.23959         0.97736
C         11.06816         6.33296         0.35053
C          9.85554         5.67483         0.72228
C         11.05007         7.74195         0.03252
C          9.81967         8.45514         0.17975
C         11.05181        10.55213        -0.23541
C          9.82506         9.86170        -0.00968
C         11.06369        11.97034        -0.24590
C          9.83202        12.69580        -0.12824
C         11.07707        14.82929        -0.12521
C          9.84584        14.12745        -0.10597
C         11.07708        16.24518         0.00023
C          9.83452        16.96758         0.00846
C         11.05595        19.04432         0.66091
C          9.81993        18.36487         0.15628
C         11.06378        20.53069         0.44375
C          9.89729        21.23321         0.17608
C         11.12150        23.39436         0.49954
C          9.88575        22.69104         0.29973
C         11.10639        24.81888         0.64928
C          9.86156        25.48578         0.82148
C         11.10583        27.66958         0.98479
C          9.84680        26.91016         1.31397
C         11.08075        29.10150         1.00832
C          9.83073        29.77897         1.01157
C         13.58281         3.85939         1.52639
C         12.35114         4.35577         1.09122
C         13.52004         6.34996         0.16613
C         12.29859         5.67210         0.50462
C         13.38260         7.51582        -0.79721
C         12.23082         8.40102        -0.35833
C         13.48895        10.51307        -0.68914
C         12.27087         9.81873        -0.45755
C         13.52105        11.92864        -0.51605
C         12.30542        12.66454        -0.31568
C         13.55415        14.77769        -0.24822
C         12.32452        14.09184        -0.22842
C         13.55819        16.27655        -0.46904
C         12.30871        16.98851        -0.00837
C         13.55847        19.12396         0.17936
C         12.32719        18.35305         0.21854
C         13.56200        20.49106         0.33257
C         12.33586        21.22635         0.82506
C         13.57935        23.41031         0.46746
C         12.35062        22.70095         0.52767
C         13.56452        24.85311         0.54687
C         12.33646        25.53822         0.70877
C         13.55536        27.69681         0.81723
C         12.32183        26.97914         0.84336
C         13.54569        29.13057         0.93454
C         12.30600        29.80936         0.99209
C         15.97169         4.23002         1.99176
C         14.77799         4.64375         1.41509
C         15.97957         6.64159         0.29920
C         14.71687         5.88077         0.64559
C         15.86428         7.15317        -1.15756
C         14.70565         8.24178        -1.16357
C         15.96588        10.58689        -1.11827
C         14.71871         9.78316        -1.12516
C         16.01102        11.94160        -0.68819
C         14.75767        12.64977        -0.48767
C         16.05942        14.74487        -0.10988
C         14.76226        14.04613        -0.30822
C         16.07074        16.23982         0.06053
C         14.80896        16.98866        -0.04103
C         16.04348        19.09988        -0.09355
C         14.82744        18.38623         0.03060
C         15.99972        20.54598        -0.19446
C         14.86181        21.23336         0.51554
C         16.03913        23.43580         0.16082
C         14.80921        22.72547         0.29085
C         16.03617        24.88577         0.35813
C         14.79677        25.57110         0.55261
C         16.02026        27.71096         0.72856
C         14.79018        26.99513         0.70018
C         16.01180        29.14248         0.89128
C         14.77761        29.82632         0.97817
C         18.50630         4.40658         2.18646
C         17.19675         5.09580         1.88885
C         18.49171         6.51696         0.23224
C         17.21672         5.73578         0.48441
C         18.47290         7.54795        -0.72706
C         17.32743         7.31721        -1.69758
C         18.42122        10.52785        -1.28138
C         17.17467        10.07176        -1.67085
C         18.55189        11.90103        -0.69496
C         17.24156        12.64569        -0.71540
C         18.47041        14.76765        -0.83774
C         17.30362        14.06526        -0.56188
C         18.56145        16.22571        -0.63153
C         17.34436        16.98083        -0.19966
C         18.55217        19.13031        -0.58767
C         17.22974        18.40654        -0.70814
C         18.58827        20.56370        -0.11664
C         17.29152        21.32956        -0.36779
C         18.57781        23.45785         0.08479
C         17.25248        22.75925        -0.06189
C         18.48135        24.96392        -0.20358
C         17.23686        25.60907         0.34995
C         18.49648        27.72932         0.60664
C         17.25186        27.01740         0.56066
C         18.47737        29.14242         0.83924
C         17.24540        29.82681         0.95408
C         19.66140         4.96294         1.76987
C         20.85499         6.84186         0.60720
C         19.67670         6.13361         0.89435
C         20.81024         7.96062        -0.21974
C         19.63884         8.35752        -0.90322
C         20.78578        10.45017        -1.72895
C         19.63846         9.73887        -1.44466
C         20.73278        11.88674        -1.88428
C         19.69432        12.62258        -1.40103
C         20.91148        14.85377        -1.27517
C         19.61854        14.12192        -1.60244
C         20.94623        16.18996        -1.16501
C         19.67080        16.99414        -1.34829
C         20.94554        19.18278        -0.98093
C         19.72828        18.45709        -0.90483
C         20.94948        20.59463        -0.89242
C         19.82498        21.31110        -0.54469
C         20.98667        23.58047        -0.43245
C         19.72463        22.81367        -0.75948
C         20.97039        24.89208        -0.03154
C         19.77604        25.65091         0.14863
C         20.95124        27.79463         0.61605
C         19.75698        27.04347         0.46356
C         20.91775        29.17135         0.85365
C         19.70884        29.84864         0.95098
O          7.65353        22.25867        -1.56699
O         14.52186         8.99065        -2.38316
O         16.45541        20.99474        -1.52981
O         17.60850         6.71482        -2.73867
O          6.61196        24.84466         2.03582
O         16.14328        15.34721         1.23248
O          5.07447        17.75557        -2.21225
O          6.09176         7.38889         2.42716
O          3.27932         7.23775         2.09995
O         18.39639        16.71083         0.75597
O         12.45357        21.15034         2.30707
H         12.09056        20.25683         2.55817
O         12.89359         6.93346        -2.04395
H         13.11181         7.57955        -2.75306
O          9.84800        26.80439         2.78934
H          9.81604        27.71835         3.14453
O          4.63339        26.78894         2.42835
H          5.32253        26.14553         2.72975
O          7.31735        12.87957         1.75548
H          7.26558        11.97455         2.13135
O         17.08799         9.13127        -2.65233
H         17.95561         9.03933        -3.09906
O         16.91344        18.30222        -2.13551
H         16.78211        19.22867        -2.45151
O          3.13679        16.05029        -2.26087
H          3.67538        16.64231        -2.83837
O         18.63432        20.52294         1.38018
H         19.31452        19.86185         1.63480
O          4.03306        14.88843         1.13584
H          3.42607        15.53306         1.57292
O         19.47827        22.91255        -2.18589
H         19.14155        23.82149        -2.37791
O         19.34457        14.29832        -3.02215
H         19.27302        15.27423        -3.18759
O          0.70188        27.72381         1.57219
H          1.46926        27.97946         2.12854
O         19.34103        17.00794        -2.76912
H         19.94643        17.63512        -3.21661
O          7.80196         5.50348         2.85111
H          7.44475         6.30925         3.29116
O         17.07251         6.16616         2.89081
H         17.02132         5.74402         3.77395
O          4.86673        14.04901        -2.30901
H          4.02685        13.58915        -2.56917
O          2.47640        12.67975        -2.33428
H          1.72622        13.23554        -2.64044
O         13.55966        16.39293        -1.94778
H         13.56176        17.34887        -2.17031
O         18.96071        23.32789         1.47799
H         18.86763        22.37253         1.72428
O         15.35242         6.07878        -1.96365
H         15.84239         6.12552        -2.82355
O          4.67013         5.10006         2.74186
H          4.48937         5.92097         3.25410
O          5.12882        21.56940        -2.46106
H          6.04447        21.91234        -2.60389
O         11.03512        18.86056         2.16292
H         10.11872        19.05086         2.46006
O         16.09130         7.83557         1.09909
H         16.37607         7.55851         2.00546
O         18.30501        25.16997        -1.65732
H         18.30558        26.13813        -1.81607
O          2.76028        17.13982         1.23576
H          1.99722        17.60070         1.64561
O         17.14059         4.63793        -0.44719
H         16.57047         4.90480        -1.20987
O         18.93508        11.79217         0.72106
H         18.87871        12.69056         1.11166
O         15.18498        21.09022         1.94057
H         14.33402        21.22523         2.43248
H          1.51400         2.42424        -0.55410
H         -0.70410         3.56179        -0.72809
H         -0.89272         5.98975        -0.35864
H         -1.01338         7.89496        -0.04170
H         -1.03303        10.29774        -0.38319
H         -1.03043        12.22882        -0.49684
H         -0.98711        14.64293        -0.59456
H         -0.96768        16.55780        -0.45845
H         -0.95488        18.97990        -0.49046
H         -0.94267        20.90925        -0.81479
H         -0.90023        23.34674        -0.82463
H         -0.72109        25.27811        -1.37020
H         -0.80279        27.68460        -0.93880
H          0.41953        29.81787        -0.44083
H          3.93598         2.57624        -0.28510
H          2.58202        30.95596        -0.12028
H          6.28663         2.57202         0.11898
H          4.93715        30.88628         0.49746
H          8.68015         2.43755         0.73811
H          7.36329        30.86541         0.75241
H         11.16369         2.55401         1.46729
H          9.81993        30.87864         1.00404
H         13.63732         2.87179         2.00809
H         12.29402        30.90836         1.03454
H         16.00651         3.29092         2.56598
H         14.77524        30.92134         1.08289
H         18.51000         3.51563         2.83368
H         17.25035        30.91662         1.10437
H         20.63007         4.52582         2.05738
H         21.80121         6.55259         1.08671
H         21.72030         8.56636        -0.33227
H         21.75028         9.94390        -1.87506
H         21.58618        12.38879        -2.36522
H         21.83704        14.26857        -1.15722
H         21.89699        16.69740        -0.94156
H         21.87889        18.67170        -1.25209
H         21.87523        21.12388        -1.16208
H         21.96024        23.08462        -0.56354
H         21.93771        25.37980         0.16351
H         21.92613        27.29666         0.53142
H         21.86276        29.72322         0.95584
H         19.69089        30.93300         1.12991
