         324
 CSIRO Nanostructure Databank - Neutral Graphene Oxide Data Set
C         30.47689        57.08280        -1.42754
C         30.52319        58.51703        -1.20847
C         29.46292        59.26091        -1.77270
C         30.55448        61.36960        -1.33081
C         29.45112        60.66022        -1.78105
C         32.87646        52.84595        -0.34946
C         32.74855        54.23708        -0.35471
C         31.56173        54.81037        -0.91498
C         32.86713        57.26832         0.23316
C         31.18653        56.15312        -0.67662
C         32.82899        58.63881        -0.12820
C         31.64445        59.25236        -0.65960
C         32.87621        61.41122        -0.54282
C         31.68943        60.68066        -0.82390
C         35.27189        48.55555         0.35865
C         35.25119        49.99104         0.29786
C         34.06864        50.71083         0.05697
C         35.27560        52.82539         0.27566
C         34.06782        52.12561         0.00471
C         35.27456        54.29895         0.16812
C         33.98578        55.04783        -0.06333
C         35.26793        57.21939         0.37275
C         34.02950        56.50739         0.24627
C         35.23099        58.64213         0.34705
C         34.06028        59.34610        -0.01105
C         35.30673        61.49066        -0.05541
C         34.08274        60.78052        -0.19605
C         37.71914        44.27635         0.37347
C         37.71528        45.64322         0.53497
C         36.39441        46.35468         0.73597
C         37.70249        48.54684         0.59815
C         36.44348        47.85271         0.52910
C         37.70579        49.97613         0.58657
C         36.48125        50.69813         0.47682
C         37.73659        52.82368         0.65358
C         36.48378        52.12614         0.50207
C         37.72627        54.28293         0.89485
C         36.43553        55.04377         0.74876
C         37.72458        57.17607         0.76336
C         36.49811        56.51570         0.59804
C         37.73629        58.64804         0.90093
C         36.43050        59.41281         0.70160
C         37.73234        61.50638         0.42654
C         36.49672        60.84713         0.33949
C         40.17086        40.01419         0.04654
C         40.15840        41.37139         0.17581
C         38.94031        42.13876         0.14771
C         40.20057        44.24466         0.31054
C         38.93744        43.51691         0.28488
C         40.16791        45.68650         0.45494
C         38.95599        46.37904         0.59469
C         40.15016        48.56237         0.72805
C         38.93153        47.83600         0.68221
C         40.15672        49.96385         0.64510
C         38.94184        50.68943         0.60468
C         40.21181        52.86684         0.65828
C         38.94326        52.13239         0.64445
C         40.17864        54.32256         0.73225
C         38.99448        55.03407         0.80915
C         40.20171        57.22118         0.76435
C         38.97555        56.48083         0.80643
C         40.20402        58.66983         0.70460
C         38.99226        59.38401         0.72814
C         40.19862        61.50894         0.59871
C         38.96998        60.81367         0.61762
C         42.68045        35.77495         0.17276
C         42.68933        37.11248        -0.18210
C         41.39951        37.85580        -0.41689
C         42.64757        40.02134        -0.29087
C         41.45495        39.24101         0.23831
C         42.64062        41.37530        -0.23177
C         41.47208        42.07137         0.46301
C         42.66367        44.30496         0.15479
C         41.40200        43.56258         0.23545
C         42.60581        45.77097         0.21022
C         41.42308        46.40310         0.47998
C         42.70749        48.54846         1.03360
C         41.39138        47.77537         1.10098
C         42.69144        50.05290         0.84206
C         41.42845        50.69032         0.29837
C         42.67312        52.89703         0.10421
C         41.40143        52.18225         0.51135
C         42.72003        54.33184         0.58420
C         41.44772        55.06702         0.82587
C         42.67164        57.24516         0.65044
C         41.44626        56.54222         0.73411
C         42.67592        58.68356         0.66633
C         41.44112        59.38507         0.67110
C         42.67072        61.52285         0.63872
C         41.43827        60.82502         0.64771
C         45.10089        33.00023         0.80044
C         43.90518        33.67833         0.66892
C         45.13600        35.74926         0.16512
C         43.89802        35.06179         0.34390
C         45.13450        37.15289        -0.12642
C         43.91726        37.82094        -0.31365
C         45.11262        40.03119        -0.50061
C         43.85249        39.24847        -0.83009
C         45.13429        41.47347        -0.89743
C         43.81037        42.17422        -0.70113
C         45.09183        44.38391        -0.92422
C         43.91461        43.61267        -0.30402
C         45.11995        45.85177        -0.45901
C         43.86434        46.52985         0.05280
C         45.14851        48.57059         0.49812
C         43.95812        47.86623         0.65934
C         45.14417        50.01304         0.56834
C         43.96729        50.72766         0.55155
C         45.12211        52.87998         0.68948
C         43.97052        52.18617         0.46314
C         45.14775        54.36281         0.95804
C         43.98649        55.08514         0.24412
C         45.12892        57.24963         0.60539
C         43.93424        56.55690         0.58688
C         45.14506        58.69327         0.58484
C         43.90630        59.39977         0.63333
C         45.14977        61.53174         0.59201
C         43.91093        60.84061         0.62460
C         46.32564        33.67055         0.59669
C         47.68868        35.68729         0.04158
C         46.35600        35.02245         0.27776
C         47.60857        37.18832        -0.11437
C         46.42382        37.85032        -0.19176
C         47.65847        40.08747        -0.41352
C         46.40002        39.33469        -0.21291
C         47.62349        41.47116        -0.64809
C         46.40853        42.23270        -0.75740
C         47.61078        44.38743        -0.55444
C         46.40615        43.63873        -0.70826
C         47.63596        45.76761        -0.22558
C         46.40338        46.50686        -0.11934
C         47.64733        48.57809         0.33787
C         46.39100        47.86447         0.20731
C         47.65346        49.95068         0.56254
C         46.41492        50.77286         0.30835
C         47.63380        52.93096         0.57639
C         46.40793        52.14969         1.00243
C         47.64284        54.34612         0.48453
C         46.44167        55.04961         0.62023
C         47.60324        57.19049         0.16251
C         46.44186        56.53306         0.86133
C         47.58699        58.69640         0.05149
C         46.35345        59.40842         0.42702
C         47.63272        61.50738         0.34969
C         46.37872        60.83843         0.46650
C         48.94935        37.88326        -0.16805
C         50.11189        40.06133        -0.42939
C         48.90425        39.38497        -0.35006
C         50.17070        41.47548        -0.62039
C         48.89621        42.16936        -0.87652
C         50.15853        44.36533        -0.48085
C         48.89156        43.70456        -0.80488
C         50.15526        45.73552        -0.14598
C         48.88698        46.45376        -0.01856
C         50.12919        48.56865         0.30611
C         48.88668        47.83578         0.25210
C         50.15011        49.94421         0.38149
C         48.91513        50.67885         0.68039
C         50.11812        52.92259         0.19732
C         48.89062        52.20116         0.62441
C         50.13927        54.39418         0.32717
C         48.91769        55.07766         0.34608
C         50.06606        57.22298        -0.07403
C         48.90432        56.50310         0.20714
C         50.07844        58.66819        -0.11957
C         48.87521        59.39454         0.02668
C         50.10575        61.50867         0.13602
C         48.86719        60.82176         0.17917
C         51.35592        42.19630        -0.59394
C         52.60571        44.32911        -0.39815
C         51.38124        43.63315        -0.52883
C         52.63609        45.71659        -0.16167
C         51.39731        46.39210         0.03184
C         52.72570        48.54104         0.33765
C         51.40644        47.81734         0.36800
C         52.69539        49.99214        -0.00439
C         51.38660        50.68985         0.05825
C         52.65358        52.90457         0.50953
C         51.39557        52.18888         0.04891
C         52.62805        54.38079         0.11542
C         51.37960        55.05054         0.07120
C         52.62109        57.24432        -0.42053
C         51.30574        56.46723        -0.30811
C         52.57314        58.70304        -0.22437
C         51.33210        59.38097        -0.14928
C         52.56684        61.51624        -0.01241
C         51.32940        60.81981        -0.01773
C         53.89343        46.45058        -0.18430
C         55.16154        48.62304        -0.15797
C         53.95975        47.81715        -0.03157
C         55.19015        49.99883        -0.06328
C         53.96121        50.77045         0.06062
C         55.18712        52.88784         0.34528
C         53.92899        52.13693         0.17477
C         55.12683        54.39993         0.32278
C         53.84320        55.11005         0.05742
C         55.05958        57.28201        -0.09145
C         53.86180        56.51588        -0.12399
C         55.03470        58.68060        -0.20649
C         53.80417        59.39941        -0.17980
C         55.03241        61.55517        -0.03428
C         53.80488        60.84877        -0.09761
C         56.53389        50.71421        -0.09762
C         57.60599        52.98206        -0.07273
C         56.47354        52.22977         0.03856
C         57.60598        54.43747        -0.00552
C         56.38932        55.11395         0.10152
C         57.63093        57.31676        -0.02890
C         56.34290        56.57877         0.13682
C         57.59474        58.73545        -0.49487
C         56.25591        59.46458        -0.64257
C         57.48590        61.58672        -0.00823
C         56.29186        60.90198        -0.14395
C         58.84369        55.16089        -0.10506
C         60.11005        57.30391        -0.06301
C         58.90541        56.55875        -0.12057
C         60.12162        58.71821         0.00926
C         58.86322        59.47402        -0.26133
C         60.07048        61.62114        -0.10982
C         58.80086        60.89560         0.24839
C         61.28585        59.48873         0.06070
C         61.23918        60.91291        -0.10161
O         31.67091        56.63952         0.55593
O         57.04560        57.18194         1.31248
O         52.15555        48.15463         1.61912
O         34.95367        54.79189        -1.17615
O         58.44675        59.11603        -1.62624
O         36.93883        59.12616         2.04545
O         47.33171        57.79881        -1.11753
O         48.91214        42.98911        -2.08537
O         36.87293        54.60518         2.06835
O         43.73927        43.78463         1.13025
O         49.06668        51.50056         1.94385
O         55.15815        53.65487         1.61938
O         51.94909        50.21286        -1.24667
O         42.72479        49.47776         2.17905
O         44.29478        46.64529        -1.38476
O         45.55089        39.88325         0.88280
O         50.68741        52.62988        -1.14423
O         44.29496        41.84190        -2.02875
O         51.91934        56.76663        -1.60916
O         42.29561        54.52830         1.94748
O         41.64103        39.04382         1.66143
H         41.69672        39.94471         2.06665
O         56.01663        59.60101        -2.07917
H         56.89927        59.75073        -2.49436
O         57.24810        50.35194        -1.28976
H         56.71232        50.61924        -2.06444
O         35.36912        45.76020        -0.06837
H         35.60003        45.89574        -1.00988
O         46.46390        52.01579         2.44769
H         47.39420        51.74562         2.66984
O         41.19030        47.45498         2.51638
H         41.48593        48.24579         3.02520
O         41.72634        41.90526         1.90171
H         42.52733        42.44743         2.10275
O         44.98324        54.51726         2.40373
H         45.41808        53.73495         2.82279
O         42.62977        52.94169        -1.36362
H         42.50828        52.00477        -1.66471
O         41.21716        38.02233        -1.83842
H         40.44786        38.61364        -1.97857
O         49.73617        37.31402        -1.23443
H         49.31967        37.55953        -2.08593
O         46.45383        51.08612        -1.12135
H         46.41926        50.24199        -1.61943
O         52.57135        52.86672         1.96611
H         53.43518        53.21583         2.30209
O         48.58585        35.36393         1.12162
H         48.13867        35.58874         1.96319
O         58.83110        60.72420         1.71587
H         58.91775        61.61376         2.11842
O         41.57481        50.47833        -1.17121
H         40.70599        50.67968        -1.58225
O         44.89221        44.38675        -2.35127
H         44.49090        45.25343        -2.59379
O         44.24730        55.05017        -1.17386
H         43.84082        54.23491        -1.55811
O         46.69059        56.70344         2.29773
H         46.04182        56.11081         2.75497
O         43.74495        39.16338        -2.26903
H         42.89370        38.69818        -2.46247
H         29.88237        56.73391        -2.28593
H         28.61295        58.71623        -2.20877
H         30.58111        62.46614        -1.40443
H         28.58316        61.19361        -2.19292
H         31.99377        52.24769        -0.62313
H         30.95056        54.17729        -1.57683
H         32.86036        62.50418        -0.67194
H         34.32182        48.00564         0.28427
H         33.13026        50.16530        -0.12228
H         35.32593        62.56934        -0.27307
H         36.75904        43.73990         0.33821
H         36.08542        46.18135         1.80660
H         37.76935        62.59119         0.24381
H         39.22508        39.46015        -0.07029
H         37.98644        41.59872         0.04816
H         40.19414        62.60702         0.53021
H         41.72412        35.24529         0.29772
H         40.53444        37.26951        -0.00029
H         42.66203        62.62299         0.62479
H         45.10530        31.93073         1.05324
H         42.94797        33.15628         0.81056
H         45.15111        62.63159         0.61212
H         47.27187        33.11942         0.69172
H         48.15888        35.26036        -0.88779
H         47.64835        62.60643         0.40318
H         49.50247        37.64446         0.78032
H         51.05074        39.49745        -0.32803
H         50.11732        62.60319         0.24527
H         52.30930        41.65656        -0.49079
H         53.55054        43.77296        -0.48856
H         52.55558        62.61320         0.07348
H         54.80685        45.88383        -0.42261
H         56.11565        48.09286        -0.30520
H         55.00957        62.63895         0.16029
H         57.15182        50.32494         0.75800
H         58.56446        52.47896        -0.27156
H         57.44311        62.66419         0.22744
H         59.77994        54.58417        -0.14501
H         61.06704        56.76144        -0.01748
H         60.06962        62.71273        -0.24595
H         62.26542        58.99503         0.13796
H         62.19326        61.44243        -0.24457
