         349
 CSIRO Nanostructure Databank - Neutral Graphene Oxide Data Set
C          1.16351         3.37409        -0.36955
C         -0.00367         4.08430        -0.37254
C          1.13807         6.21422        -0.77412
C         -0.00879         5.51570        -0.51706
C          1.17114         7.67557        -0.84126
C          0.04451         8.41959        -1.17356
C          1.17388        10.57998        -0.92648
C          0.09994         9.84273        -1.33609
C          1.24714        12.08829        -1.21018
C         -0.04728        12.84049        -0.97418
C          1.16533        14.93564        -0.44421
C         -0.05140        14.15112        -0.64021
C          1.10917        16.39611        -0.23757
C         -0.06364        17.15326        -0.42989
C          1.07465        19.23722         0.13031
C         -0.09421        18.53103        -0.18683
C          1.12347        20.71005         0.54117
C         -0.12917        21.51814         0.28306
C          1.16284        23.60624         0.29629
C         -0.07693        22.87085         0.17280
C          1.16983        25.06977         0.52072
C         -0.04788        25.92411         0.43306
C          1.27506        27.86333        -0.46802
C          0.01150        27.21315         0.06241
C          1.31120        29.36595        -0.33724
C          3.62395         3.38199        -0.40421
C          2.42873         4.03747        -0.55695
C          3.66710         6.22300        -0.66533
C          2.41914         5.46688        -1.05241
C          3.63087         7.65395        -0.53043
C          2.40870         8.36548        -0.58945
C          3.59916        10.56024        -0.10439
C          2.26129         9.82709        -0.16029
C          3.64313        11.96413        -0.56223
C          2.36100        12.75002        -0.39019
C          3.59551        15.03933        -0.16601
C          2.39155        14.28877        -0.49024
C          3.48745        16.31300         0.62878
C          2.28115        17.09883         0.14644
C          3.58434        19.20028         0.29625
C          2.27596        18.49871         0.23876
C          3.63428        20.68522         0.10892
C          2.31574        21.43388        -0.11917
C          3.63677        23.55212         0.31542
C          2.37702        22.90445         0.28560
C          3.74079        25.02068         0.00733
C          2.48717        25.76990         0.37114
C          3.68018        27.90663         0.32128
C          2.51489        27.22691         0.09985
C          3.70934        29.36925         0.24230
C          2.45195        30.03994        -0.08972
C          6.09194         3.39784        -0.35467
C          4.89201         4.07518        -0.48660
C          6.13488         6.22831        -0.58468
C          4.87543         5.52703        -0.57909
C          6.11966         7.67581        -0.56573
C          4.89388         8.33466        -0.40142
C          6.15381        10.51180        -0.41538
C          4.89457         9.78506        -0.18241
C          6.12417        11.88115        -0.61220
C          4.86211        12.47924        -0.90300
C          6.08703        15.08159         0.10513
C          4.85492        14.63601        -0.51482
C          6.06666        16.34682         0.64123
C          4.80091        17.07896         0.63336
C          6.06790        19.19164         0.84476
C          4.79705        18.44297         0.66988
C          6.08782        20.68021         0.77101
C          4.84442        21.43583         0.51456
C          6.15766        23.57717         0.32648
C          4.84496        22.82002         0.46848
C          6.09220        25.02069         0.79305
C          4.94745        25.72983         0.60048
C          6.06171        27.90614         0.91824
C          4.91775        27.19756         0.65520
C          6.06613        29.40718         1.12252
C          4.83205        30.06727         0.56508
C          8.57547         3.41660        -0.24667
C          7.35383         4.08493        -0.38508
C          8.61575         6.19352        -0.81571
C          7.33504         5.51171        -0.56017
C          8.62447         7.70660        -0.93360
C          7.36421         8.41896        -0.63641
C          8.60505        10.61128        -0.75818
C          7.38483         9.80042        -0.50348
C          8.60731        12.03638        -0.36248
C          7.29830        12.69985        -0.17744
C          8.58948        14.81533         0.74861
C          7.25669        14.15280         0.28669
C          8.61030        16.32909         0.62773
C          7.34621        17.05277         1.05810
C          8.61779        19.22500         0.69657
C          7.33445        18.45896         0.44318
C          8.60638        20.66823         0.78391
C          7.40166        21.36111         0.66567
C          8.62511        23.51093         1.24792
C          7.33614        22.80597         0.91350
C          8.61117        25.01022         1.32727
C          7.41405        25.75055         0.75663
C          8.61781        27.96125         1.19507
C          7.32728        27.19526         1.20692
C          8.55897        29.36483         0.69605
C          7.35732        30.02040         0.61895
C         11.04655         3.42977         0.00349
C          9.83521         4.10667        -0.22297
C         11.06975         6.24895        -0.36844
C          9.87135         5.51859        -0.46486
C         11.07936         7.70009        -0.51160
C          9.91264         8.40699        -0.75042
C         11.21394        10.64314        -0.90591
C          9.91464         9.87171        -0.96569
C         11.10086        11.95182         0.03031
C          9.80695        12.75036        -0.17764
C         11.09967        14.80780         0.34933
C          9.81323        14.10651         0.19840
C         11.08220        16.32208         0.57436
C          9.77984        17.03994         0.59304
C         11.06627        19.23738         0.71771
C          9.80745        18.51446         0.66991
C         11.09798        20.62730         0.85527
C          9.87589        21.38616         0.92827
C         11.13662        23.55706         0.99154
C          9.90248        22.78548         1.09304
C         11.12899        24.94811         1.03877
C          9.90869        25.73843         1.32410
C         10.90463        27.71272         0.08634
C          9.98936        27.26810         1.22543
C         10.93641        29.22489        -0.02033
C          9.77700        29.95580         0.20290
C         13.51172         3.44290         0.23517
C         12.27932         4.12752         0.04690
C         13.51829         6.26673         0.03674
C         12.28818         5.55399        -0.09529
C         13.53103         7.69750        -0.03772
C         12.33371         8.41748        -0.31892
C         13.56882        10.51544        -0.11848
C         12.38308         9.81961        -0.42482
C         13.60661        11.98617        -0.36137
C         12.35071        12.76803        -0.26830
C         13.55908        14.93942        -0.31057
C         12.32777        14.12906        -0.16376
C         13.53137        16.46263        -0.22805
C         12.29278        17.12401         0.33186
C         13.53375        19.25366         0.28132
C         12.30181        18.49704         0.48245
C         13.60217        20.62257         0.45835
C         12.42191        21.34356         1.08081
C         13.58678        23.50043         0.60119
C         12.40206        22.83862         0.79572
C         13.66276        24.97687         0.63061
C         12.36034        25.73760         0.82629
C         13.41088        27.72551        -0.20449
C         12.27682        27.09536         0.26527
C         13.34450        29.14563        -0.57149
C         12.13808        29.85138        -0.42698
C         15.96745         3.41296         0.45983
C         14.73507         4.12392         0.29253
C         15.96486         6.28773         0.33054
C         14.73934         5.56841         0.22355
C         15.98535         7.69187         0.38279
C         14.74921         8.40056         0.19331
C         15.94080        10.52396         0.72030
C         14.74030         9.81520         0.21522
C         15.98715        12.00965         0.61372
C         14.88739        12.72245        -0.09677
C         16.02089        14.94358         0.51827
C         14.86957        14.22612        -0.08869
C         16.08622        16.31986         0.50730
C         14.75596        17.07046         0.51029
C         16.06137        19.22138        -0.10948
C         14.77763        18.49591         0.00548
C         16.03280        20.68724        -0.02068
C         14.84234        21.33633         0.26533
C         16.04790        23.52104        -0.09038
C         14.92392        22.79486         0.63370
C         15.98765        24.90686        -0.33527
C         14.77205        25.66512        -0.05468
C         15.74522        27.65756        -1.18541
C         14.66180        27.00601        -0.36113
C         15.75010        29.16643        -1.10895
C         14.52442        29.83252        -0.92477
C         18.43786         3.38589         0.66872
C         17.20207         4.06004         0.46442
C         18.53074         6.24531         0.54664
C         17.22622         5.52202         0.26880
C         18.43659         7.65575         0.99824
C         17.21467         8.43360         0.67164
C         18.45982        10.54614         1.26413
C         17.21523         9.79477         0.88525
C         18.48474        12.07615         1.30438
C         17.23746        12.76663         0.85842
C         18.91120        15.17790         1.06447
C         17.04916        14.10223         1.09744
C         18.69495        16.45493         0.53820
C         17.35560        17.11000         0.70207
C         18.55563        19.22348        -0.22043
C         17.33398        18.56021         0.30382
C         18.44648        20.62130        -0.54544
C         17.27298        21.36562        -0.30318
C         18.39553        23.51951        -0.82899
C         17.22852        22.80837        -0.43651
C         18.39363        24.92538        -0.84392
C         17.16496        25.60876        -0.73632
C         18.23864        27.74621        -1.34651
C         17.11038        27.03546        -1.01144
C         18.17847        29.19193        -1.51985
C         16.92825        29.86225        -1.36639
C         19.64425         4.06249         0.86066
C         20.94010         6.19104         1.11197
C         19.72653         5.46602         0.90382
C         20.99457         7.56309         1.13361
C         19.78243         8.38739         1.24465
C         20.89509        10.57942         0.70057
C         19.75396         9.84182         1.09088
C         20.94126        11.95367         0.64721
C         19.88134        12.84202         1.25565
C         20.88595        14.84246        -0.17142
C         19.89776        14.27012         0.65453
C         20.85496        16.20622        -0.49707
C         19.76998        17.05495        -0.16196
C         20.89191        19.18556        -0.94694
C         19.72084        18.48891        -0.46349
C         20.85570        20.50239        -1.27360
C         19.60046        21.26669        -1.20428
C         20.81645        23.56928        -1.54118
C         19.57232        22.79068        -1.35017
C         20.86085        24.89672        -1.36471
C         19.68926        25.71694        -0.87951
C         20.74517        27.92914        -1.54164
C         19.54231        27.02995        -1.66729
C         20.63083        29.28007        -1.64899
C         19.35415        29.91985        -1.69777
O          3.90911        19.81014        -1.05264
O         15.56161        11.38254         1.87681
O          2.00144        25.43060         1.70681
O          9.21238        25.40874         2.59175
O          9.12544        10.30467        -2.12652
O         11.27194        15.38510         1.69448
O         18.33914        11.31495         2.53443
O          7.71202        23.03952         2.31373
O         13.32834        25.57764         1.92494
O         18.90219         7.88652         2.33347
O         17.31742        18.17190         1.72634
O         14.58269        12.23391        -1.43715
O          6.96902        13.07742         1.24953
O         15.41594        18.65804        -1.30539
O         18.08724         6.00241        -0.82668
O          4.31508        10.23559         1.13611
O         11.06848        11.57371         1.34671
O          6.31578        23.70386        -1.08983
O         17.94383        14.72608         1.96435
O          7.91884        27.67110         2.46320
O          8.60818         6.86455        -2.13650
O         14.46366        14.64666        -1.43026
O          4.96694        13.71037        -1.54912
O         19.24506        21.92327        -2.48437
O          6.07602        19.93676         2.09025
O          7.24882        18.24632        -0.99356
H          7.24994        19.11783        -1.44282
O          7.39736        17.15776         2.48987
H          7.74845        16.30390         2.83646
O          2.48405         5.37321        -2.52595
H          3.28508         4.85168        -2.74836
O         12.69370        21.26966         2.53096
H         11.91934        21.65449         2.99642
O          3.95682        25.06649        -1.43042
H          4.83547        24.59030        -1.57206
O          1.36730        20.72666         1.97267
H          0.63292        20.25986         2.42278
O          1.76896         9.72145         1.21045
H          2.56980         9.67512         1.78412
O         19.45765        26.65359        -3.07641
H         19.46634        27.47672        -3.60823
O          1.61070        12.23268        -2.60906
H          0.87214        11.89267        -3.15558
O          3.20633        15.98478         2.02482
H          2.39555        15.43253         2.03806
O          8.67462        14.60880         2.19253
H          8.46996        13.65777         2.35909
O          1.27198        27.56761        -1.90749
H          2.16437        27.77643        -2.25670
O          2.04880        21.46998        -1.53632
H          2.66320        20.82877        -1.96709
O          6.03775        29.64681         2.56851
H          6.73226        29.05585         2.95473
O         10.34657        27.18565        -1.14380
H         10.89186        27.50256        -1.89365
O         20.28211        13.02589         2.63481
H         19.83450        12.32002         3.16010
O         13.51935        16.92920        -1.59570
H         14.14550        16.36793        -2.10968
O          1.99753        12.53583         1.00465
H          2.80062        12.64212         1.55675
O         14.43004        17.09941         1.92191
H         15.19445        17.48556         2.40518
O         15.30253        22.79937         2.05323
H         14.57465        22.34243         2.53839
O         10.63634        27.71877         2.43071
H         10.10976        27.35746         3.17897
O         11.53150        11.13435        -2.21490
H         10.70705        11.07976        -2.75479
O         15.37643        27.34587        -2.58243
H         16.12609        27.62088        -3.15231
O          7.71590        25.86686        -0.66906
H          7.28604        25.07513        -1.12454
O         19.96710        26.10856         0.49363
H         19.95022        25.30492         1.05380
H          1.15986         2.29216        -0.17040
H         -0.96044         3.57227        -0.19844
H         -0.95851         6.04802        -0.36124
H         -0.89176         7.90541        -1.43232
H         -0.75791        10.33290        -1.82296
H         -1.00438        12.32305        -1.14165
H         -1.01945        14.65974        -0.51741
H         -0.99289        16.65859        -0.74435
H         -1.05135        19.06177        -0.28981
H         -1.11006        21.01841         0.28806
H         -1.01117        23.44031         0.05746
H         -1.00818        25.49341         0.75841
H         -0.91075        27.81505         0.04918
H          0.38435        29.91743        -0.55846
H          3.63273         2.30926        -0.15580
H          2.44714        31.14104        -0.07137
H          6.08759         2.30437        -0.23186
H          4.81087        31.16838         0.54761
H          8.57631         2.32525        -0.10765
H          7.33344        31.05083         0.22932
H         11.04081         2.33910         0.14647
H          9.77695        31.03634        -0.01320
H         13.50237         2.34610         0.32313
H         12.13826        30.94026        -0.59340
H         15.93155         2.31861         0.57152
H         14.48755        30.92736        -1.03964
H         18.42737         2.28804         0.72949
H         16.91259        30.96300        -1.39238
H         20.55578         3.47676         1.05066
H         21.87815         5.61858         1.16932
H         21.97303         8.06308         1.15016
H         21.80119        10.01851         0.42372
H         21.89934        12.42176         0.38040
H         21.72691        14.23941        -0.54188
H         21.69557        16.61256        -1.07631
H         21.83583        18.63225        -1.04814
H         21.75651        20.99440        -1.66589
H         21.70787        23.03653        -1.90402
H         21.81056        25.42546        -1.53683
H         21.74290        27.47182        -1.47714
H         21.53234        29.91020        -1.65242
H         19.30404        31.01445        -1.78584
