         620
 CSIRO Nanostructure Databank - Neutral Graphene Oxide Data Set
C         22.86901        27.33403         0.77675
C         22.85140        28.67804         0.55384
C         23.39585        31.27890        -0.76466
C         23.57906        32.54899        -1.29572
C         23.62953        35.38691        -2.05718
C         23.62328        36.72833        -2.36428
C         23.83038        39.54805        -3.27334
C         23.90949        40.89534        -3.63775
C         24.15586        43.72893        -4.53871
C         24.23093        45.07814        -4.86810
C         25.28550        24.60335         1.69205
C         24.08199        25.29329         1.46586
C         25.35570        27.41609         1.08203
C         24.06223        26.65410         1.19505
C         25.23523        28.87350         1.52339
C         23.95465        29.55648         1.01306
C         24.89843        31.88384         0.99539
C         24.02335        30.93338         0.45144
C         25.36682        33.03102         0.31273
C         24.54536        33.44566        -0.77671
C         25.72493        35.60579        -0.80586
C         24.65620        34.80833        -1.25336
C         25.74999        37.00792        -1.17293
C         24.66230        37.59461        -1.92620
C         25.68981        39.86881        -1.72449
C         24.69253        38.97359        -2.31637
C         25.86691        41.23854        -2.23667
C         24.90614        41.76646        -3.14578
C         25.98639        44.00425        -2.96616
C         25.01323        43.16907        -3.56287
C         26.06334        45.38076        -3.28883
C         25.16462        45.92467        -4.24368
C         26.03553        48.18644        -3.88212
C         25.21447        47.34575        -4.54173
C         27.81822        23.11491         1.54115
C         27.75526        24.49035         1.82129
C         26.53803        25.25362         1.73094
C         27.76374        27.41269         1.70434
C         26.57957        26.69687         1.60655
C         27.79965        28.87152         1.65597
C         26.53200        29.59922         1.66757
C         27.75279        31.80479         1.93763
C         26.55974        30.94075         1.94340
C         27.74265        33.16211         1.31625
C         26.61749        33.73490         0.62119
C         27.97697        35.75501         0.22299
C         26.77550        35.02197         0.01329
C         28.11311        37.06710        -0.45426
C         26.89661        37.76006        -0.89730
C         28.16423        39.97308        -0.99589
C         26.89502        39.21385        -1.01060
C         28.14932        41.39771        -1.28543
C         26.97104        42.00064        -1.80540
C         28.17219        44.23004        -1.76071
C         26.86181        43.49679        -1.84923
C         28.14798        45.62949        -2.01590
C         27.07509        46.22293        -2.68333
C         28.34054        48.36827        -2.86739
C         26.95881        47.73674        -2.78001
C         28.72848        49.27778        -3.85514
C         30.27665        23.11172         1.61477
C         29.03802        22.44314         1.47493
C         30.30743        24.48121         1.89142
C         29.02160        25.17535         2.11349
C         30.30800        27.37054         1.80025
C         29.00704        26.70234         2.06260
C         30.28650        28.86917         1.75927
C         28.98924        29.56430         1.85773
C         30.31237        31.78051         1.81779
C         29.05332        31.03337         2.03016
C         30.23302        33.17056         1.73817
C         28.99360        33.85083         1.36421
C         30.25141        36.05599         1.25078
C         29.06657        35.20265         0.91130
C         30.39508        37.42953         0.66445
C         29.34612        37.88582        -0.29550
C         30.60833        40.01233        -0.64130
C         29.31220        39.32977        -0.60644
C         30.61757        41.49936        -0.94383
C         29.32838        42.17451        -1.13087
C         30.56143        44.35539        -1.07163
C         29.33523        43.59410        -1.29897
C         30.55388        45.75610        -1.16708
C         29.28528        46.43077        -1.50644
C         30.63631        48.62212        -1.76883
C         29.33553        47.89903        -1.90487
C         30.87736        49.82617        -2.72152
C         29.95694        49.93852        -3.83955
C         32.78847        20.30567         1.91626
C         31.63455        20.98634         1.98957
C         32.81145        23.11586         1.57540
C         31.53955        22.34043         1.30970
C         32.81328        24.51093         1.82664
C         31.54702        25.22370         1.98532
C         32.78755        27.35675         2.32786
C         31.54467        26.61395         2.09383
C         32.80612        28.86067         2.30811
C         31.51939        29.61839         2.14572
C         32.79837        31.71661         1.94889
C         31.56555        31.07739         1.90807
C         32.80669        33.18191         2.10138
C         31.46811        33.93032         2.02809
C         32.83575        36.10424         1.63275
C         31.50050        35.41571         1.79796
C         32.90414        37.45541         1.00837
C         31.71139        38.11548         0.58545
C         32.96582        40.16733         0.06375
C         31.77305        39.41508         0.03722
C         32.98064        41.58781        -0.16407
C         31.80632        42.27587        -0.56526
C         32.94650        44.44081        -0.36734
C         31.76969        43.68401        -0.66584
C         32.95178        45.85167        -0.54907
C         31.76117        46.52136        -0.98026
C         33.04998        48.63691        -1.17597
C         31.81712        47.92024        -1.26239
C         33.17893        49.92445        -1.78033
C         32.23687        50.41721        -2.72150
C         33.69964        52.30927        -3.28088
C         32.51502        51.57347        -3.46453
C         35.41258        18.78951         1.35436
C         35.27829        20.21577         1.03538
C         33.96989        20.94590         1.26689
C         35.25089        23.11519         1.32967
C         34.01649        22.42433         1.40655
C         35.26011        24.53128         1.48535
C         34.04509        25.20131         1.78802
C         35.30967        27.40719         1.80553
C         34.10295        26.62685         2.13532
C         35.28592        28.84199         1.82747
C         34.07441        29.56969         2.02095
C         35.28387        31.70551         1.83420
C         34.05646        30.98697         1.93608
C         35.28076        33.15940         1.81728
C         34.07404        33.90735         1.86705
C         35.32533        35.96820         1.49808
C         34.09512        35.30758         1.66621
C         35.43918        37.33715         0.87270
C         34.13278        38.06696         0.80154
C         35.47122        40.24156         0.76562
C         34.20163        39.44293         0.34861
C         35.22062        41.68812         0.94209
C         34.12296        42.35698         0.21474
C         35.28899        44.52810         0.47490
C         34.11158        43.76095         0.12061
C         35.32530        45.93105         0.18418
C         34.16066        46.59578        -0.31529
C         35.43061        48.69912        -0.39737
C         34.20855        47.98755        -0.60672
C         35.51236        50.14175        -0.70529
C         34.35256        50.75949        -1.48560
C         35.84705        52.67995        -2.05700
C         34.62278        51.95228        -2.30149
C         35.95587        54.09635        -2.40519
C         37.83442        18.90214         0.99889
C         36.62915        18.18699         1.34373
C         37.77418        20.30984         0.81906
C         36.52241        21.00283         0.93965
C         37.67132        23.17660         0.90069
C         36.47440        22.42068         1.03719
C         37.69833        24.55770         1.15824
C         36.49459        25.26146         1.42169
C         37.72797        27.42732         1.41053
C         36.49124        26.70423         1.52277
C         37.74609        28.85500         1.48438
C         36.51030        29.55934         1.63453
C         37.76827        31.67030         1.64969
C         36.51499        30.98662         1.69747
C         37.76985        33.11025         1.92224
C         36.50985        33.86159         1.81644
C         37.78866        35.99943         1.63080
C         36.53116        35.26666         1.69856
C         37.78953        37.45353         1.64166
C         36.60520        38.15882         1.41275
C         37.74219        40.33685         1.90473
C         36.60526        39.57773         1.43680
C         37.62903        41.79070         1.89452
C         36.38618        42.49163         1.45571
C         37.59758        44.66289         1.30097
C         36.41315        43.91335         1.06366
C         37.68746        46.02768         0.94914
C         36.52857        46.67065         0.40745
C         37.75378        48.88904         0.54388
C         36.56570        48.05846         0.10756
C         37.94971        50.09785        -0.33686
C         36.85784        50.74848        -0.87231
C         38.25469        52.82850        -1.52992
C         36.94183        52.05782        -1.46418
C         38.02667        54.25999        -1.03390
C         36.94308        54.86827        -1.90617
C         40.40018        16.16241         0.79312
C         39.20607        16.81741         1.01372
C         40.23595        18.95212         0.38149
C         39.08320        18.21919         0.80804
C         40.15424        20.37861         0.15119
C         38.95744        21.03687         0.44953
C         40.04731        23.28857        -0.04845
C         38.74606        22.49168         0.09102
C         40.26825        24.54567         0.75724
C         39.00765        25.24998         1.31219
C         40.11262        27.48808         1.67909
C         38.95724        26.72216         1.46985
C         40.23209        28.86918         1.38299
C         38.98697        29.57088         1.38963
C         40.26406        31.68696         1.32177
C         38.99538        30.99652         1.45749
C         40.28444        33.10833         1.31619
C         39.07381        33.86018         1.71413
C         40.18268        36.06252         1.17224
C         38.97309        35.30722         1.49959
C         40.21323        37.46439         1.61689
C         39.02531        38.18107         1.83027
C         40.27634        40.26917         2.24903
C         38.99909        39.62059         2.08905
C         40.47657        41.59397         2.66771
C         38.55844        42.68408         2.43896
C         39.80814        44.84059         2.31704
C         38.65474        44.06030         2.06044
C         40.08398        46.05887         1.67214
C         38.93960        46.74233         1.11007
C         40.27716        48.78965         0.90443
C         39.02367        48.09598         0.77129
C         40.37084        50.12087         0.45055
C         39.28893        50.69935        -0.36682
C         40.54031        52.94455        -0.33622
C         39.42363        52.11823        -0.86319
C         40.49763        54.37010        -0.48171
C         39.32876        55.04323        -0.95904
C         40.54187        57.15909        -0.89729
C         39.37312        56.42078        -1.15228
C         42.78728        16.17019         0.08504
C         41.54450        16.87821         0.36730
C         42.72967        19.03117        -0.09196
C         41.45723        18.26699         0.17538
C         42.52074        20.43293        -0.62498
C         41.30940        21.07867        -0.41601
C         42.55490        23.28354        -0.57797
C         41.27045        22.56074        -0.52696
C         42.61050        24.63306        -0.26669
C         41.54665        25.25275         0.48641
C         42.81030        27.40183         0.55511
C         41.85028        26.48129         1.06888
C         42.72435        28.82467         0.74826
C         41.50517        29.52283         1.12590
C         42.69508        31.69242         0.83141
C         41.48360        30.96032         1.08092
C         42.69253        33.12108         0.84940
C         41.47032        33.81472         1.05017
C         42.74138        36.00464         1.06628
C         41.45964        35.29034         0.94654
C         42.75675        37.37562         1.33659
C         41.53184        38.04752         1.82612
C         42.80485        40.24528         1.79764
C         41.56014        39.52487         2.12117
C         42.81877        41.64842         1.88706
C         41.66865        42.33652         2.40016
C         42.78340        44.53928         2.01446
C         41.73895        43.73956         2.54272
C         42.66651        45.97233         1.85310
C         41.40139        46.69191         1.69743
C         42.67623        48.83338         1.66630
C         41.44190        48.06872         1.37919
C         42.70979        50.31369         1.33590
C         41.70561        50.80354         0.31934
C         42.78618        53.09003         0.63154
C         41.64490        52.32108         0.23880
C         42.77732        54.48478         0.46849
C         41.65161        55.12984        -0.12194
C         42.85590        57.30581        -0.02397
C         41.66975        56.54125        -0.35832
C         43.81996        16.77845        -0.53465
C         44.88951        18.97256        -1.48203
C         43.72129        18.21292        -0.90370
C         44.89206        20.44965        -1.34512
C         43.70848        21.12588        -1.07668
C         44.97400        23.30514        -1.21661
C         43.64454        22.61121        -1.35938
C         44.98954        24.74249        -0.96758
C         43.83205        25.39352        -0.46825
C         45.07455        27.53049        -0.39408
C         43.89067        26.78138        -0.14939
C         45.08725        28.92561        -0.09501
C         43.90042        29.58108         0.38383
C         45.11657        31.74107         0.26955
C         43.90973        31.00388         0.50804
C         45.12842        33.16591         0.40310
C         43.91816        33.85858         0.67398
C         45.16695        36.00616         0.74326
C         43.94216        35.28282         0.82402
C         45.17790        37.41911         0.94034
C         43.97586        38.10730         1.27751
C         45.20649        40.25635         1.30110
C         43.98569        39.53088         1.46703
C         45.22059        41.67758         1.41473
C         44.01607        42.39202         1.67259
C         45.22485        44.50851         1.50156
C         44.00581        43.81714         1.72238
C         45.15599        45.96874         1.32319
C         43.90134        46.70665         1.65430
C         45.23515        48.83648         1.72200
C         43.94813        48.09252         1.72736
C         45.24806        50.33722         1.58049
C         43.98863        51.04279         1.29082
C         45.25843        53.13405         1.17314
C         44.00676        52.39955         1.04007
C         45.21155        54.59443         1.35710
C         43.90088        55.31252         0.97103
C         43.91094        56.73993         0.60562
C         47.31242        19.03082        -1.89121
C         46.17240        18.31156        -1.75179
C         47.33329        20.47480        -1.79791
C         46.13860        21.16221        -1.54012
C         47.45742        23.33213        -1.23099
C         46.14122        22.60291        -1.38377
C         47.34748        24.75406        -1.77458
C         46.17624        25.47508        -1.15769
C         47.46873        27.58524        -1.03737
C         46.23462        26.86133        -0.89131
C         47.48929        28.97668        -0.74345
C         46.29923        29.65421        -0.31504
C         47.54194        31.79497        -0.26222
C         46.32384        31.06481        -0.09267
C         47.56415        33.20927        -0.06492
C         46.35370        33.89831         0.25251
C         47.59482        36.04542         0.29801
C         46.37520        35.31157         0.43355
C         47.61118        37.45768         0.49920
C         46.40449        38.14546         0.82224
C         47.64934        40.27736         0.95682
C         46.41441        39.55693         1.01051
C         47.66310        41.66993         1.20341
C         46.45698        42.38821         1.34699
C         47.71142        44.54106         1.31665
C         46.44646        43.82452         1.38629
C         47.73476        45.95254         1.30717
C         46.47615        46.70426         1.20283
C         47.72447        48.82994         1.33818
C         46.51317        48.15236         1.42912
C         47.76099        50.28357         1.29505
C         46.46916        50.97777         0.95911
C         47.72835        53.16761         1.29283
C         46.47692        52.47154         1.17826
C         47.67721        54.61087         1.37118
C         46.50326        55.29415         1.39001
C         49.76783        20.54793        -2.43216
C         48.58196        21.20573        -2.01310
C         49.81562        23.33525        -2.08908
C         48.62915        22.60332        -1.84358
C         49.83446        24.78140        -1.93468
C         48.65640        25.49240        -1.65339
C         49.91960        27.59030        -1.46325
C         48.66972        26.88968        -1.40824
C         49.93061        29.01847        -1.20109
C         48.72118        29.70339        -0.86457
C         49.97437        31.83399        -0.73820
C         48.74744        31.10858        -0.62402
C         50.00742        33.24682        -0.49202
C         48.78585        33.94076        -0.19121
C         50.01392        36.09732        -0.19872
C         48.79992        35.35246        -0.02204
C         50.01033        37.49670        -0.06800
C         48.83154        38.19594         0.34808
C         50.07226        40.36491         0.45200
C         48.85969        39.59289         0.60552
C         50.14583        41.69584         0.83311
C         48.96690        42.34403         1.51179
C         50.17203        44.51958         1.33174
C         48.93665        43.83490         1.32859
C         50.19339        45.95280         1.37148
C         48.96505        46.66666         1.36026
C         50.20717        48.78863         1.22140
C         48.97216        48.10020         1.30339
C         50.23798        50.27567         0.93915
C         48.93852        50.98813         1.24629
C         50.20340        53.07296         1.57320
C         48.94472        52.44072         1.31970
C         50.94795        21.24493        -2.61005
C         52.24529        23.39040        -2.62258
C         51.01072        22.64825        -2.43433
C         52.24234        24.79927        -2.51548
C         51.06733        25.49164        -2.10896
C         52.38965        27.58074        -1.82551
C         51.08697        26.89131        -1.83073
C         52.39844        29.05242        -1.56112
C         51.12848        29.75315        -1.30602
C         52.42762        31.86921        -1.15656
C         51.17033        31.15279        -1.09533
C         52.45954        33.24651        -0.80755
C         51.23472        33.94547        -0.52637
C         52.47902        36.05280        -0.32641
C         51.25901        35.38172        -0.38629
C         52.54665        37.50590        -0.47974
C         51.21513        38.25995        -0.42296
C         52.59774        40.43100        -0.03402
C         51.24614        39.73473        -0.17921
C         52.62223        41.75567         0.59534
C         51.39646        42.42009         0.86503
C         52.67392        44.47250         1.62358
C         51.39715        43.78677         1.24266
C         52.67106        45.95289         1.34012
C         51.44100        46.66347         1.32528
C         52.70544        48.84066         1.00480
C         51.41829        48.08441         1.22841
C         52.66664        50.25360         1.55368
C         51.46862        50.96043         1.49850
C         51.37575        52.36826         1.73065
C         54.69005        23.39858        -2.91830
C         53.47900        22.71615        -2.83932
C         54.74912        24.79949        -2.95779
C         53.44187        25.56206        -3.03649
C         54.69888        27.68457        -2.72619
C         53.56222        26.97184        -2.49677
C         54.74749        29.17296        -2.60675
C         53.53592        29.86593        -2.08265
C         54.86733        31.92399        -1.60652
C         53.62894        31.24866        -1.57689
C         54.91598        33.26870        -1.11651
C         53.71328        33.90365        -0.73722
C         55.03555        36.03465        -0.21917
C         53.73113        35.28800        -0.23869
C         55.03337        37.51240        -0.22354
C         53.82165        38.23466        -0.23972
C         55.07563        40.30503         0.17781
C         53.84462        39.63516        -0.05475
C         55.10012        41.70901         0.50537
C         53.88007        42.41479         0.76510
C         55.13939        44.48001         1.16623
C         53.91686        43.77854         1.14004
C         55.14734        45.90793         1.36407
C         53.91666        46.64113         1.34523
C         55.15657        48.74711         1.60405
C         53.95056        48.06500         1.36758
C         55.10261        50.16772         1.85954
C         53.91949        50.85661         1.90217
C         57.22789        24.90942        -3.21440
C         55.97016        25.51983        -3.12783
C         57.18742        27.79140        -3.31723
C         55.89971        26.99479        -3.25276
C         57.19646        29.23347        -2.94642
C         56.04555        29.90422        -2.58204
C         57.29025        31.98492        -2.04809
C         56.07418        31.28293        -2.10986
C         57.37539        33.30497        -1.47430
C         56.17877        33.97764        -1.06305
C         57.47650        36.04147        -0.65450
C         56.24715        35.32963        -0.66895
C         57.50883        37.44374        -0.32788
C         56.27788        38.18202        -0.16100
C         57.55859        40.26630         0.20927
C         56.30295        39.58693         0.06531
C         57.58028        41.66661         0.49623
C         56.34221        42.38129         0.65686
C         57.61133        44.46855         1.08322
C         56.36373        43.77558         0.95812
C         57.61412        45.87286         1.35510
C         56.38264        46.60184         1.45082
C         57.65769        48.66714         1.80794
C         56.39980        48.01789         1.64381
C         58.42733        25.64966        -3.26227
C         59.68705        27.77461        -3.16879
C         58.45292        27.03911        -3.23820
C         59.71603        29.13348        -3.14824
C         58.47929        29.93706        -3.09903
C         59.80016        32.03070        -2.26527
C         58.51928        31.41089        -2.63004
C         59.83617        33.23854        -1.65562
C         58.62667        33.96619        -1.34217
C         59.91524        36.05257        -0.81951
C         58.68571        35.33626        -0.93200
C         59.94173        37.38350        -0.47886
C         58.74416        38.12313        -0.24193
C         59.99440        40.24585         0.21601
C         58.77511        39.54093         0.06415
C         60.01601        41.59853         0.49884
C         58.82090        42.34624         0.64672
C         60.05689        44.48303         1.10207
C         58.84027        43.76539         0.94274
C         60.06390        45.83573         1.37457
C         58.84895        46.56128         1.49581
C         58.84050        47.96560         1.74451
O         29.21107        37.03713        -1.49191
O         51.82007        40.46493        -1.29638
O         34.28815        20.46673        -0.07968
O         32.04750        29.33234         3.48359
O         41.72487        38.54680         3.21185
O         35.29665        39.77249        -0.60665
O         40.37753        23.32621        -1.46814
O         45.38736        49.76072         2.89740
O         30.92324        40.50397        -1.99328
O         30.40581        28.08197         0.50674
O         51.81719        37.91276        -1.69941
O         40.67484        35.80431        -0.21170
O         30.35516        49.98120        -1.35278
O         25.79289        39.82637        -0.26391
O         45.67207        46.35907        -0.00333
O         28.84335        47.48565        -0.57549
O         39.83446        51.01063        -1.75158
O         44.24487        55.04589         2.37114
O         32.09947        36.13505         2.90606
O         34.54800        50.98789        -0.03211
O         29.86189        37.24981         2.02020
O         52.76572        28.11818        -0.48669
O         28.41772        31.61916         3.23398
O         32.07218        33.58769         3.30638
O         39.90275        24.44906         2.16514
O         35.25391        42.12148         2.34202
O         39.46782        42.22278         3.39756
O         53.74975        29.77724        -3.53260
O         33.55738        26.87540         3.48147
O         54.46855        35.47309         1.03655
O         40.72801        44.37542         3.26653
O         25.39161        31.62878         2.27927
O         56.39213        27.51240        -4.53388
O         28.98242        26.00900         3.33787
O         42.33659        49.90033         2.66914
O         43.75845        18.48239        -2.32603
O         41.20933        26.84881         2.25383
O         38.60784        33.48817         3.06927
O         58.42953        31.05061        -4.04871
O         24.20975        29.29041         2.44350
O         49.17823        42.14642         2.97014
H         49.11442        41.18289         3.14405
O         42.29599        50.34994        -0.94759
H         41.61938        50.53507        -1.64643
O         38.60994        52.95679        -2.93025
H         39.02113        52.10337        -3.19612
O         52.73019        44.35679         3.11440
H         51.85681        44.64437         3.45854
O         52.78809        49.01528        -0.47479
H         53.63640        49.47339        -0.66054
O         38.10813        22.42938        -1.22635
H         38.82899        22.55677        -1.89252
O         47.06917        24.62550        -3.20127
H         47.00083        25.52659        -3.58028
O         46.30112        50.76669        -0.48326
H         47.14030        51.01814        -0.92506
O         26.36334        48.20314        -1.53074
H         27.01253        47.99433        -0.81459
O         31.49284        22.08894        -0.12852
H         32.30318        21.59159        -0.37780
O         37.39744        49.43423         1.86666
H         37.20572        48.67684         2.45947
O         43.25663        22.73885        -2.77469
H         43.93662        22.27354        -3.30708
O         26.15466        43.84595        -0.59167
H         25.32582        43.32099        -0.56570
O         25.60099        27.54723        -0.37184
H         25.69515        26.64226        -0.73851
O         50.35739        50.39574        -0.52316
H         51.18669        49.91236        -0.77619
O         53.16567        25.73462        -4.47608
H         53.92480        26.22037        -4.86711
O         43.38442        19.20446         1.21275
H         42.73756        19.61964         1.82157
O         35.79460        37.05628        -0.52919
H         35.82378        37.93230        -0.98560
O         47.73296        23.44296         0.19440
H         47.82200        22.53732         0.55761
O         37.53216        54.16312         0.32604
H         37.30030        55.06178         0.63884
H         21.96701        26.73285         0.58557
H         21.93530        29.15300         0.17245
H         22.71983        30.57120        -1.26353
H         23.00022        32.83400        -2.18381
H         22.79252        34.76387        -2.39854
H         22.78474        37.13544        -2.94537
H         23.05434        38.93152        -3.74793
H         23.17648        41.27051        -4.36478
H         23.40617        43.10164        -5.03964
H         23.54155        45.49552        -5.61623
H         25.23656        23.51900         1.85836
H         23.13556        24.73292         1.47801
H         25.98114        49.26664        -4.08292
H         24.52485        47.73310        -5.30753
H         26.89791        22.55254         1.33127
H         28.04392        49.48080        -4.69227
H         29.04112        21.37275         1.22708
H         30.27030        50.50814        -4.72573
H         32.87885        19.29365         2.33826
H         30.74850        20.54706         2.47254
H         33.87459        53.19408        -3.90837
H         31.77615        51.93506        -4.19314
H         34.50555        18.19943         1.54574
H         35.14985        54.55633        -2.99569
H         36.68326        17.11176         1.55993
H         36.93105        55.95072        -2.10039
H         40.47103        15.07632         0.94763
H         38.34086        16.23250         1.35124
H         40.55092        58.24255        -1.08282
H         38.48567        56.96082        -1.50996
H         42.83683        15.09909         0.33101
H         42.86506        58.37908        -0.26498
H         44.71205        16.20557        -0.82510
H         44.77188        57.35456         0.90311
H         48.24935        18.49331        -2.08694
H         46.19248        17.21874        -1.86288
H         48.61651        55.17860         1.42125
H         46.51025        56.38832         1.49179
H         49.77102        19.46526        -2.61214
H         50.23506        54.16131         1.72005
H         51.84216        20.68506        -2.91360
H         52.28076        52.92609         2.01043
H         55.61710        22.81016        -2.97173
H         53.50420        21.61917        -2.86712
H         56.02753        50.70317         2.11110
H         53.93869        51.91315         2.20415
H         57.30310        23.81386        -3.18514
H         57.69616        49.75191         1.97547
H         59.38192        25.10310        -3.26314
H         60.62899        27.20616        -3.18259
H         60.68105        29.65585        -3.19112
H         60.73665        31.53905        -2.56059
H         60.81160        33.69015        -1.43203
H         60.86869        35.54424        -1.01360
H         60.91584        37.88576        -0.41349
H         60.95257        39.71934         0.11575
H         60.99076        42.09150         0.60990
H         61.01846        43.96113         1.00814
H         61.01892        46.36822         1.49091
H         59.79931        48.49028         1.86490
