         732
 CSIRO Nanostructure Databank - Neutral Graphene Oxide Data Set
C         23.06418        24.55340         0.59626
C         21.93215        25.26994         1.04271
C         23.07995        27.38134         0.62627
C         21.92827        26.64796         1.03511
C         23.09087        28.81118         0.60623
C         21.88787        29.57938         0.84893
C         23.12605        31.75466         0.72456
C         21.87667        30.93018         0.85108
C         22.95732        32.99108        -0.18257
C         21.80922        33.86760         0.24285
C         23.00032        35.97131        -0.17948
C         21.84157        35.22922         0.21250
C         23.03048        37.39781        -0.18633
C         21.81450        38.15162        -0.11969
C         23.02954        40.25873         0.07132
C         21.81251        39.52112        -0.03034
C         23.04004        41.68847         0.25438
C         21.86272        42.46712         0.12770
C         23.06186        44.48513         0.81440
C         21.88630        43.82393         0.36158
C         23.00442        45.88548         1.24880
C         21.77359        46.57877         1.20524
C         22.64743        48.35657         2.56665
C         21.59733        47.80821         1.83152
C         25.44332        23.00786        -0.19002
C         25.36913        24.48939        -0.45947
C         24.20690        25.22114         0.18722
C         25.45584        27.35558        -0.08046
C         24.25019        26.65179         0.23293
C         25.47808        28.78464        -0.03227
C         24.28873        29.51322         0.29461
C         25.49711        31.62829        -0.05350
C         24.32390        30.94125         0.27286
C         25.47623        33.08637        -0.19893
C         24.26926        33.75535        -0.25727
C         25.53710        35.96386        -0.54706
C         24.20698        35.20307        -0.51767
C         25.52580        37.42128        -0.26516
C         24.26735        38.12231        -0.18643
C         25.48300        40.27384         0.16607
C         24.25590        39.54451         0.00846
C         25.47868        41.61704         0.53917
C         24.25510        42.35897         0.58871
C         25.49155        44.40023         1.44462
C         24.24714        43.74535         0.94208
C         25.48614        45.85511         1.88697
C         24.13187        46.51639         1.84060
C         25.89229        48.82685         2.61016
C         23.88111        47.69934         2.55674
C         25.92850        50.22087         2.65606
C         27.91703        23.01800         0.23273
C         26.58327        22.34644         0.03690
C         27.88162        24.48857        -0.13812
C         26.68315        25.19107        -0.21222
C         27.91629        27.30267        -0.38275
C         26.68144        26.61749        -0.25745
C         27.88595        28.75152        -0.63988
C         26.67564        29.50836        -0.29959
C         27.99005        31.63500        -0.32271
C         26.72084        30.91513        -0.27483
C         28.00386        33.06304        -0.14181
C         26.74582        33.79914        -0.21284
C         27.97142        35.93549         0.03509
C         26.74954        35.18523        -0.27652
C         28.01289        37.38398        -0.32953
C         26.72813        38.10513        -0.22570
C         28.06375        40.26158         0.04751
C         26.74690        39.56890        -0.14993
C         28.03284        41.60931         0.68661
C         26.74193        42.30827         0.89211
C         27.97212        44.47765         1.15253
C         26.77246        43.77432         1.08354
C         27.96515        45.91857         1.40318
C         26.78609        46.60939         1.75755
C         28.02846        48.76631         1.49493
C         26.86703        48.04776         1.93290
C         28.04312        50.19629         1.48128
C         26.96453        50.90849         2.03084
C         30.19930        20.23355        -1.10209
C         29.09605        20.90025        -0.65017
C         30.32409        23.01910        -0.50359
C         29.10152        22.30449        -0.39841
C         30.33546        24.42852        -0.22445
C         29.13272        25.18118        -0.18694
C         30.38873        27.35314        -0.34910
C         29.14118        26.61300        -0.32596
C         30.42423        28.72180        -0.48387
C         29.20200        29.50385        -0.71400
C         30.47266        31.62670        -0.27478
C         29.21432        30.95159        -0.42513
C         30.48875        33.04013        -0.05982
C         29.23697        33.73085        -0.01079
C         30.54806        35.91612         0.13498
C         29.26255        35.18488         0.20693
C         30.55612        37.31524         0.17397
C         29.33946        38.09162        -0.15629
C         30.49972        40.15813         0.57642
C         29.34291        39.52620         0.17220
C         30.47141        41.59680         1.06912
C         29.30166        42.38262         0.45538
C         30.45132        44.47935         0.99256
C         29.23846        43.81068         0.94038
C         30.45504        45.92342         1.06480
C         29.21666        46.62509         1.22780
C         30.43480        48.76256         0.92097
C         29.22321        48.04677         1.18110
C         30.42740        50.19130         0.79747
C         29.21357        50.90521         0.99353
C         30.34957        52.97467         0.39002
C         29.19766        52.29463         0.76072
C         32.76798        18.80839        -1.01108
C         32.74687        20.19443        -1.19625
C         31.46241        20.95070        -1.48398
C         32.76314        23.02430        -1.04058
C         31.52513        22.35473        -0.92807
C         32.86953        24.42592        -0.58173
C         31.62342        25.11809        -0.10394
C         32.95654        27.30824        -0.04063
C         31.63638        26.61520        -0.01348
C         32.98527        28.72882        -0.50104
C         31.69630        29.47160        -0.60258
C         32.94482        31.60086        -0.20505
C         31.71083        30.92969        -0.36799
C         32.96283        33.01187         0.04203
C         31.73570        33.72611         0.09641
C         32.97300        35.87367         0.36729
C         31.76059        35.17816         0.22043
C         32.98622        37.28938         0.45592
C         31.76780        38.02748         0.39215
C         32.98128        40.13825         0.81780
C         31.75834        39.44724         0.59976
C         33.00629        41.60157         0.89922
C         31.76423        42.34191         0.84673
C         32.92374        44.49337         0.75489
C         31.71132        43.74396         0.85258
C         32.91629        45.89056         0.76280
C         31.67356        46.62789         0.90031
C         32.87344        48.80604         0.65070
C         31.66313        48.05881         0.80761
C         32.87767        50.19848         0.46411
C         31.62834        50.90593         0.49764
C         32.81692        53.03668        -0.02167
C         31.59002        52.31268         0.28402
C         32.81312        54.42165        -0.28595
C         35.20037        18.83104        -0.75026
C         33.96619        18.14149        -0.78007
C         35.21598        20.22670        -1.00580
C         33.97511        20.90668        -1.21399
C         35.23788        23.03118        -1.73267
C         33.96164        22.33743        -1.31333
C         35.25581        24.56258        -1.53130
C         33.97169        25.31459        -1.14199
C         35.44245        27.33349        -0.55720
C         34.24827        26.49292        -0.15531
C         35.44699        28.75748        -0.38585
C         34.23458        29.48086        -0.30279
C         35.45240        31.58523        -0.14979
C         34.20704        30.88336        -0.23712
C         35.44014        33.01906         0.04897
C         34.22970        33.68843         0.19525
C         35.48877        35.88557         0.33587
C         34.23701        35.11538         0.68318
C         35.47551        37.28877         0.44898
C         34.22394        38.00579         0.57484
C         35.48108        40.09116         1.00304
C         34.20088        39.40520         0.74282
C         35.48321        41.60351         1.20269
C         34.21268        42.30249         0.93920
C         35.43675        44.52239         0.82412
C         34.20012        43.73652         0.46432
C         35.38470        45.97850         0.53099
C         34.15997        46.62274         0.65289
C         35.43998        48.84577         0.50804
C         34.14319        48.08355         0.77439
C         35.34366        50.26502         0.14033
C         34.10922        50.92969         0.20944
C         35.27056        53.06596        -0.30042
C         34.06105        52.34606        -0.04597
C         35.23808        54.47025        -0.55252
C         33.98668        55.11694        -0.54846
C         37.61511        16.12307         0.23911
C         36.43936        16.77103        -0.09130
C         37.67472        18.85023        -0.46645
C         36.43678        18.13884        -0.44114
C         37.68981        20.25801        -0.72813
C         36.46935        20.96015        -0.98244
C         37.74485        23.04965        -1.22617
C         36.49491        22.35284        -1.20230
C         37.81039        24.47765        -1.29113
C         36.56496        25.25497        -1.31988
C         37.86612        27.36255        -0.92966
C         36.61226        26.66839        -0.87188
C         37.89831        28.75773        -0.67272
C         36.67735        29.47130        -0.42097
C         37.97976        31.56894         0.02744
C         36.66718        30.87740        -0.24339
C         37.92212        33.06338        -0.16419
C         36.71220        33.74343         0.02217
C         37.92119        35.90263        -0.05510
C         36.69692        35.18103         0.09564
C         37.91952        37.32506         0.05714
C         36.70776        38.03016         0.34842
C         37.92217        40.17865         0.33983
C         36.73158        39.42425         0.58047
C         37.94311        41.60404         0.42025
C         36.85595        42.31442         1.19799
C         37.93353        44.49772         0.34590
C         36.75285        43.81548         0.91740
C         37.78323        45.88557        -0.10503
C         36.60097        46.68632         0.26970
C         37.81910        48.79547        -0.25120
C         36.62734        48.07305         0.11892
C         37.78599        50.23471        -0.31112
C         36.55355        50.95360        -0.18116
C         37.74220        53.08508        -0.51582
C         36.52331        52.36890        -0.33252
C         37.72341        54.53015        -0.68681
C         36.47782        55.20335        -0.78390
C         37.68138        57.26913        -1.28764
C         36.49061        56.58382        -1.09371
C         40.07016        15.03922         1.40660
C         40.07660        16.11915         0.51872
C         38.85882        16.79074         0.16055
C         40.16300        18.86275        -0.28450
C         38.89799        18.16154        -0.22779
C         40.18171        20.24665        -0.56122
C         38.94202        20.94590        -0.80241
C         40.23979        22.95714        -1.57802
C         38.95894        22.31729        -1.11585
C         40.25346        24.46136        -1.43927
C         39.05729        25.18137        -1.31652
C         40.26852        27.37316        -1.35709
C         39.06776        26.64034        -1.21445
C         40.28186        28.77572        -1.22641
C         39.12237        29.48847        -0.82818
C         40.36494        31.63642        -0.81814
C         39.16103        30.89916        -0.62995
C         40.37410        33.07231        -0.61237
C         39.15547        33.77032        -0.34403
C         40.36472        35.92532        -0.41280
C         39.14316        35.19962        -0.28609
C         40.35526        37.34797        -0.31661
C         39.13507        38.05224        -0.08696
C         40.33109        40.20890        -0.19078
C         39.12211        39.47916        -0.00766
C         40.31556        41.63374        -0.19680
C         39.10733        42.33160         0.09978
C         40.29255        44.50682        -0.36900
C         39.08853        43.79182         0.03370
C         40.31273        45.91086        -0.50200
C         39.04481        46.64188        -0.53566
C         40.26460        48.81561        -0.57825
C         39.03199        48.11046        -0.45554
C         40.24713        50.24015        -0.64009
C         38.98950        50.95112        -0.55221
C         40.18556        53.12220        -0.90334
C         38.94837        52.36846        -0.62386
C         40.22650        54.56524        -0.46621
C         38.93594        55.26683        -0.80330
C         40.20749        57.40200        -1.36795
C         38.92625        56.63051        -1.10607
C         40.23542        58.76682        -0.72898
C         42.50300        14.99987         1.45969
C         41.25589        14.47263         1.87123
C         42.58119        16.02322         0.54118
C         41.35356        16.62218        -0.09830
C         42.61634        18.84262        -0.17217
C         41.39470        18.14801        -0.13343
C         42.67199        20.24554        -0.38196
C         41.44133        20.96132        -0.64148
C         42.80935        22.87622        -1.47280
C         41.48063        22.30117        -1.02912
C         42.82645        24.40365        -1.65943
C         41.51130        25.14935        -1.77276
C         42.80140        27.38821        -1.52814
C         41.51889        26.65996        -1.72597
C         42.75814        28.77067        -1.51718
C         41.48053        29.54652        -1.71148
C         42.79465        31.68655        -1.28807
C         41.55323        30.97646        -1.21079
C         42.81638        33.12852        -1.10995
C         41.59429        33.80015        -0.78329
C         42.81803        35.94322        -0.71873
C         41.59033        35.22270        -0.63781
C         42.80971        37.37137        -0.55876
C         41.58422        38.07329        -0.39618
C         42.79200        40.22359        -0.30108
C         41.56542        39.50017        -0.32486
C         42.78636        41.66511        -0.43588
C         41.52716        42.36518        -0.44958
C         42.70432        44.49644        -0.98431
C         41.50198        43.76908        -0.55498
C         42.72944        45.95926        -0.88053
C         41.53808        46.64985        -0.68513
C         42.70761        48.84488        -0.75495
C         41.50822        48.11215        -0.69118
C         42.70920        50.26368        -0.69256
C         41.47488        50.93808        -0.73411
C         42.73948        53.14142        -0.73696
C         41.48493        52.39041        -0.92757
C         42.72573        54.52631        -0.85500
C         41.49320        55.27079        -0.90549
C         42.74313        57.39246        -1.07813
C         41.49099        56.63835        -1.08749
C         42.66690        58.79124        -0.88100
C         41.42654        59.43002        -0.61612
C         45.12759        15.95944         0.56537
C         43.87730        16.58542         0.13235
C         45.14916        18.81895         0.11006
C         43.89863        18.09361        -0.16551
C         45.13489        20.26828         0.03997
C         43.93305        20.95120        -0.35866
C         45.19008        23.07811        -0.50791
C         43.99437        22.33037        -0.69063
C         45.24580        24.50286        -0.73912
C         44.06939        25.18702        -1.33273
C         45.23435        27.35071        -1.09739
C         44.02898        26.67047        -1.29660
C         45.31539        28.77602        -1.44742
C         43.99377        29.53023        -1.64645
C         45.28104        31.65703        -1.71763
C         43.99429        30.98165        -1.47887
C         45.26747        33.18392        -1.74622
C         44.02492        33.86777        -1.27004
C         45.27310        36.05194        -1.13656
C         44.02979        35.25418        -1.00173
C         45.28994        37.44094        -0.63272
C         44.04055        38.09895        -0.48908
C         45.24259        40.19764         0.05011
C         44.00150        39.50076        -0.26386
C         45.22277        41.73533        -0.08577
C         43.99582        42.36632        -0.55075
C         45.37652        44.49243        -1.17874
C         44.04021        43.73602        -1.06806
C         45.30129        45.97240        -0.81760
C         44.01274        46.66797        -1.06692
C         45.22870        48.88656        -0.58150
C         43.99868        48.17024        -0.98161
C         45.17656        50.26202        -0.37978
C         43.95734        51.00522        -0.56268
C         45.16715        53.19194        -0.26405
C         43.96149        52.41415        -0.54605
C         45.20613        54.54050        -0.49365
C         44.02833        55.20733        -1.18026
C         45.25184        57.37445        -1.06069
C         43.98398        56.70767        -1.04453
C         46.28599        16.66693         0.55780
C         47.56279        18.79835         0.69976
C         46.30884        18.09275         0.36429
C         47.54295        20.32422         0.67737
C         46.32061        21.00819         0.22431
C         47.59225        23.13435         0.18023
C         46.37211        22.41002        -0.02699
C         47.59779        24.57442         0.03226
C         46.38728        25.25231        -0.42003
C         47.56916        27.46155        -0.32231
C         46.41173        26.68888        -0.61124
C         47.65115        28.84772        -0.59197
C         46.51507        29.57110        -1.12059
C         47.85496        31.67905        -1.35594
C         46.53805        30.92426        -1.40240
C         47.64366        33.13674        -0.85152
C         46.65106        33.89166        -1.75831
C         47.90455        36.10458        -1.27087
C         46.56794        35.38687        -1.46112
C         47.78442        37.46605        -0.61299
C         46.52411        38.13840        -0.47556
C         47.72604        40.25913         0.03566
C         46.52494        39.51282        -0.10546
C         47.69634        41.68546         0.04612
C         46.51138        42.41703        -0.23889
C         47.76544        44.49995        -0.47754
C         46.53487        43.78906        -0.51378
C         47.78935        45.98412        -0.77303
C         46.45106        46.68941        -0.59860
C         47.61459        48.83654        -0.02474
C         46.44885        48.14421        -0.39453
C         47.67086        50.25576         0.15075
C         46.36981        50.97075         0.13549
C         47.65953        53.17196         0.38347
C         46.33619        52.46144         0.30268
C         47.67692        54.67084         0.16459
C         46.32986        55.42190         0.03911
C         46.39983        56.73978        -0.69190
C         50.01579        18.86912         0.54156
C         48.86341        18.15481         0.49414
C         50.03683        20.31039         0.65323
C         48.83073        21.02472         0.58844
C         50.03059        23.14780         0.75604
C         48.80869        22.44800         0.49862
C         49.95419        24.61852         0.81385
C         48.74331        25.30369         0.32284
C         50.02127        27.49025         0.17916
C         48.69392        26.81447         0.45912
C         50.08312        28.84889        -0.06808
C         48.86740        29.58732        -0.35262
C         50.12788        31.69776        -0.29894
C         48.92392        30.96719        -0.55468
C         50.14298        33.12785        -0.31603
C         48.95711        33.87489        -0.63594
C         50.20040        35.96366        -0.29927
C         48.99728        35.26010        -0.64729
C         50.21734        37.38412        -0.27488
C         48.97360        38.13271        -0.33199
C         50.20155        40.24310        -0.09371
C         48.98807        39.55512        -0.05580
C         50.27616        41.67456         0.15505
C         48.93311        42.44824         0.20458
C         50.25968        44.56165        -0.45796
C         48.94999        43.86068        -0.16706
C         50.21700        45.97089         0.04217
C         48.89561        46.61014         0.05657
C         50.07506        48.77836         0.64926
C         48.82202        48.08998         0.34487
C         50.17107        50.29242         0.80135
C         48.87334        50.95070         0.33251
C         50.09345        53.02877        -0.14579
C         48.90123        52.38287         0.18981
C         50.06234        54.44301        -0.44487
C         48.94040        55.20896        -0.36566
C         52.53134        20.36945         0.60537
C         51.28686        21.03025         0.70252
C         52.54789        23.14189         1.07584
C         51.25047        22.45364         0.86720
C         52.58154        24.66502         0.95500
C         51.27390        25.37736         0.81044
C         52.58963        27.39974        -0.03144
C         51.25537        26.70128         0.14188
C         52.57634        28.86109         0.01332
C         51.35156        29.55642        -0.08110
C         52.56781        31.68635         0.12851
C         51.34385        30.98253        -0.07441
C         52.56911        33.11270         0.21619
C         51.36068        33.82287        -0.02329
C         52.60597        35.95609         0.28791
C         51.39206        35.25049         0.00734
C         52.63967        37.36352         0.14881
C         51.45102        38.05623        -0.12156
C         52.75761        40.25859        -0.19858
C         51.45789        39.51622        -0.34657
C         52.73780        41.72165        -0.02801
C         51.52795        42.42412        -0.07222
C         52.67287        44.59268         0.17455
C         51.50379        43.85292        -0.00346
C         52.67199        46.01057         0.41133
C         51.33276        46.61799         0.53722
C         52.98738        49.02229         0.68024
C         51.12416        47.97159         1.00389
C         52.72080        50.29469         0.09039
C         51.43351        50.93331         0.16008
C         52.44332        52.83012        -1.00068
C         51.32893        52.25407        -0.32690
C         53.75255        21.05167         0.62160
C         55.06163        23.16432         0.85895
C         53.81482        22.42859         0.83807
C         55.08845        24.58132         0.65960
C         53.84601        25.32107         0.55237
C         55.06744        27.42760         0.22054
C         53.84286        26.68240         0.26732
C         55.05647        28.80514         0.29247
C         53.80451        29.54189         0.21748
C         54.97361        31.66072         0.64820
C         53.77827        30.95668         0.28240
C         54.95112        33.07093         0.82769
C         53.76977        33.82149         0.56245
C         54.98610        35.92818         1.11977
C         53.81035        35.24202         0.64327
C         54.88447        37.46066         1.31511
C         54.00619        38.02600         0.17149
C         55.11666        40.25838         0.44203
C         53.96482        39.53637         0.19807
C         55.14853        41.70441         0.35167
C         53.96260        42.41361         0.11948
C         55.16856        44.60912         0.35692
C         53.96557        43.89110        -0.14471
C         55.17046        45.99371         0.31646
C         53.90685        46.71886         0.38062
C         55.17399        48.78323        -0.29438
C         54.00802        48.15997         0.28116
C         55.08194        50.14298        -0.72166
C         53.82276        50.86420        -0.63060
C         53.63302        52.15217        -1.18512
C         57.50589        23.16077         0.87969
C         56.30193        22.48976         0.98856
C         57.55298        24.54293         0.56119
C         56.33113        25.24398         0.46059
C         57.58337        27.42689         0.34414
C         56.34062        26.67471        -0.05479
C         57.61343        28.75488         0.64235
C         56.35409        29.58549         0.32506
C         57.15250        31.64669         1.62757
C         56.12211        30.93117         1.00163
C         57.32229        33.02592         1.51747
C         56.14597        33.75004         1.17802
C         57.32571        35.61502         2.10842
C         56.11691        35.15758         1.43165
C         57.33157        37.77828         2.00860
C         56.21278        38.23663         1.33551
C         57.54793        40.26545         0.92457
C         56.32057        39.56841         0.84064
C         57.58514        41.69473         0.74200
C         56.38496        42.39032         0.56163
C         57.70741        44.60769         0.63868
C         56.36596        43.85458         0.68426
C         57.64674        46.00651         0.20303
C         56.44173        46.69260         0.15604
C         57.57460        48.69534        -0.82723
C         56.40320        48.07405        -0.31175
C         57.45449        50.03080        -1.31272
C         56.26502        50.73132        -1.24716
C         60.04501        24.56170         0.25870
C         58.83487        25.21570         0.30578
C         60.13844        27.42502        -0.12639
C         58.82730        26.67019         0.05154
C         60.13326        28.87470         0.23893
C         58.94016        29.40649         0.78229
C         60.13787        31.53542         1.36407
C         59.09345        30.61116         1.48427
C         59.92868        32.92016         2.04551
C         58.70339        33.69691         1.42698
C         59.78383        35.92963         2.50024
C         58.58160        35.10970         1.98879
C         59.82538        37.41794         1.97067
C         58.66345        38.23416         1.76017
C         60.02005        40.19929         1.07906
C         58.75422        39.56298         1.24082
C         60.06624        41.61046         0.69189
C         58.86325        42.38020         0.67613
C         60.11330        44.40244         0.00042
C         58.91563        43.78125         0.43581
C         60.09534        45.79081        -0.43658
C         58.95737        46.71370        -0.02753
C         59.94532        48.43225        -1.55096
C         58.81824        47.96558        -0.86905
C         61.28953        25.26981         0.14688
C         61.36129        26.62578         0.03858
C         61.26785        29.71012         0.20037
C         61.24717        31.04349         0.65059
C         61.12019        33.84579         1.94848
C         61.05430        35.16546         2.17352
C         61.04733        38.06571         1.74343
C         61.15008        39.41115         1.34409
C         61.27028        42.26903         0.35368
C         61.28682        43.60302        -0.03262
C         61.15543        46.34089        -1.14780
C         61.10476        47.65352        -1.65815
O         28.81935        37.72324        -1.50069
O         27.47419        40.22974        -1.29583
O         44.07399        47.49714        -2.29611
O         28.47830        35.64586         1.38645
O         45.14553        32.43358        -2.97970
O         24.84056        35.61323        -1.78535
O         46.05814        51.61331         1.45173
O         57.03189        44.33207         1.90327
O         43.24191        43.95944        -2.26985
O         27.47721        41.62000         2.02014
O         32.26520        27.12716         1.23312
O         35.87772        25.20688        -2.69094
O         36.09007        44.38865         2.12574
O         49.67020        42.10720         1.42810
O         52.65761        24.01233         2.25776
O         43.94664        17.09928        -1.24983
O         45.12204        41.07293         1.21808
O         52.16677        48.57774         1.71931
O         43.76069        24.72813        -2.73377
O         32.41727        29.00315        -1.82496
O         28.47501        29.13373        -1.93492
O         50.48567        25.30724         2.03083
O         25.47995        44.77819         2.88054
O         48.47026        47.05899         1.37286
O         58.05944        30.90541         2.38073
O         35.43688        40.69246         2.34877
O         59.33395        27.04770        -1.29717
O         52.22387        39.88033        -1.55778
O         24.88590        48.22907         3.37025
O         34.98545        48.57468         1.87880
O         32.56978        24.50377         0.84768
O         44.81699        29.07552        -2.78039
O         57.16078        36.74488         2.93269
O         47.42259        19.57294         1.93912
O         47.80051        54.10101         1.51441
O         41.42308        25.95513        -3.00862
O         40.79048        52.81982        -2.18802
O         38.11656        46.07882        -1.52683
O         45.81411        36.01893        -2.55894
O         51.89637        26.75179        -1.17397
O         54.06003        44.00979        -1.62690
H         53.19216        43.73072        -1.99516
O         47.15596        33.84694        -3.10482
H         46.56034        34.40775        -3.65013
O         30.25518        41.54717         2.50217
H         31.03304        41.11934         2.91676
O         54.67453        37.64665        -1.06549
H         54.16407        38.03878        -1.80656
O         54.19349        37.69972         2.55773
H         54.77332        37.39077         3.28597
O         28.16478        22.97928         1.68145
H         29.05132        23.36994         1.83776
O         29.51045        42.46802        -0.98059
H         29.04357        41.72771        -1.42680
O         45.74055        44.49451        -2.60175
H         44.88943        44.58447        -3.09662
O         34.28679        43.64976        -1.00892
H         33.43089        43.29791        -1.33631
O         40.30062        54.50360         0.99548
H         40.31347        55.42143         1.33969
O         41.29859        29.67529        -3.16886
H         41.36047        28.77542        -3.55731
O         59.70327        32.70623         3.44599
H         58.99024        32.03372         3.54167
O         37.38181        42.22959         2.54982
H         36.81315        42.80186         3.11297
O         23.42842        32.28411         2.05025
H         23.55127        31.52467         2.65723
O         48.12928        46.14787        -2.18571
H         47.40195        45.70304        -2.68952
O         50.25195        50.58854         2.22247
H         50.98575        50.04207         2.58538
O         50.37486        44.56970        -1.92626
H         49.64062        45.14556        -2.27021
O         46.98557        33.05980         0.44245
H         47.60466        32.64056         1.07736
O         41.34450        16.17592        -1.49952
H         42.21196        16.45897        -1.87920
O         58.99412        33.75361         0.00597
H         58.26793        34.23629        -0.44156
O         56.63003        29.98360        -1.06448
H         55.78243        30.25845        -1.47488
O         45.90417        55.77445         1.38719
H         46.33500        55.12242         1.99394
O         22.65898        32.49072        -1.51404
H         22.67682        33.24970        -2.13422
O         33.40957        25.87777        -2.34280
H         34.15859        26.04786        -2.96252
O         42.98495        22.32908        -2.83473
H         43.59559        22.95720        -3.29547
O         44.24189        54.96799        -2.62880
H         43.38016        55.10213        -3.07913
O         38.21037        31.38633         1.48402
H         37.46032        31.81297         1.95197
O         25.12576        24.62288        -1.90152
H         25.90865        24.26574        -2.37111
O         34.25513        34.99748         2.15888
H         34.25871        35.90819         2.52460
O         40.27176        22.71170        -3.03878
H         41.22320        22.59419        -3.29668
O         48.38187        27.07124         1.87544
H         49.05415        26.56639         2.39558
O         34.62462        25.97773         1.13205
H         33.80019        25.93032         1.67603
O         56.39171        26.55934        -1.51771
H         57.31270        26.74419        -1.81037
O         59.36083        47.21248         1.31471
H         60.20662        47.69575         1.19647
O         59.69771        36.04206         3.93718
H         58.80323        36.39381         4.14409
O         35.29348        22.79008        -3.17083
H         35.82145        23.52972        -3.55750
O         48.41901        31.65939        -2.68697
H         47.86108        32.23254        -3.26805
O         31.41866        21.09091        -2.95647
H         30.64104        21.64748        -3.17368
O         48.40425        36.38718        -2.61385
H         47.62363        36.66983        -3.14296
O         40.21136        57.64567        -2.82117
H         40.98571        58.21605        -3.01453
H         23.01714        23.45657         0.57043
H         21.04040        24.71922         1.37255
H         21.02533        27.17773         1.36543
H         20.93848        29.04670         0.99851
H         20.92852        31.45374         1.04114
H         20.86627        33.37582         0.52136
H         20.93963        35.77868         0.51904
H         20.85218        37.62508        -0.17222
H         20.84939        40.04771         0.00376
H         20.91913        41.99809        -0.18064
H         20.95279        44.38326         0.22653
H         20.90836        46.13553         0.69860
H         22.52103        49.27595         3.15171
H         20.62208        48.31164         1.79131
H         24.51338        22.43034        -0.30800
H         25.13970        50.76094         3.19489
H         26.54086        21.25720         0.18970
H         26.97155        52.00552         2.05603
H         30.11445        19.16132        -1.32746
H         28.17461        20.32928        -0.46642
H         30.28063        54.05569         0.21156
H         28.26202        52.86130         0.85824
H         31.83662        18.22724        -1.03042
H         31.86864        54.98147        -0.28769
H         33.93267        17.05629        -0.62090
H         33.92060        56.19550        -0.74383
H         37.58340        15.05881         0.50879
H         35.50206        16.20146        -0.06024
H         37.65196        58.32946        -1.57472
H         35.54594        57.13145        -1.21194
H         39.11430        14.66703         1.80215
H         39.29054        59.28039        -0.50119
H         43.41938        14.57110         1.88975
H         41.22763        13.64549         2.59268
H         43.58948        59.37971        -0.79073
H         41.44043        60.47653        -0.27714
H         45.12720        14.90736         0.88110
H         45.30413        58.42436        -1.39000
H         47.21791        16.16558         0.85253
H         47.34511        57.29993        -0.70851
H         50.96408        18.33130         0.41296
H         48.90188        17.08167         0.26020
H         50.98187        54.92844        -0.79804
H         48.98876        56.25506        -0.69775
H         52.56243        19.28204         0.46375
H         52.35662        53.83584        -1.43193
H         54.67461        20.47585         0.46248
H         54.43753        52.63399        -1.75705
H         58.43928        22.59614         1.00824
H         56.31396        21.41164         1.19931
H         58.33920        50.54056        -1.71851
H         56.24670        51.77197        -1.59967
H         60.09563        23.47222         0.39163
H         59.91545        49.39895        -2.07331
H         62.21716        24.68539         0.23103
H         62.33345        27.13649         0.09494
H         62.19417        29.32714        -0.25168
H         62.13545        31.67054         0.48844
H         62.10696        33.39410         1.75841
H         62.00281        35.72206         2.16576
H         61.99396        37.53076         1.89510
H         62.15662        39.84032         1.23705
H         62.21537        41.70773         0.35321
H         62.24591        44.05215        -0.32534
H         62.03879        45.72970        -1.38151
H         61.96309        48.04052        -2.22390
