         296
 CSIRO Nanostructure Databank - Neutral Graphene Oxide Data Set
C         30.52999        31.60649        -1.40868
C         30.63595        32.82518        -1.52576
C         30.79989        36.13675        -1.50868
C         31.08863        37.33032        -1.67568
C         31.07217        40.79208        -1.56233
C         30.77868        41.96952        -1.75576
C         32.55987        28.90654         0.16035
C         31.60288        29.39839        -0.43873
C         32.80773        31.47118        -0.58881
C         31.66868        30.63315        -1.30470
C         32.81820        32.98039        -0.58803
C         31.74494        33.80628        -1.37212
C         32.79825        35.77940        -0.18212
C         31.45305        35.10110        -0.61295
C         33.32071        37.85452        -1.84462
C         32.03262        38.39589        -1.70479
C         33.07847        40.28552        -0.42895
C         31.77676        39.63607        -0.87718
C         32.98527        41.58068         0.07679
C         30.73906        43.40188        -1.73936
C         32.66253        44.31917        -0.19983
C         31.70440        44.06709        -0.94445
C         35.20037        27.28249         1.10037
C         34.91291        28.73685         1.33599
C         33.96747        29.31254         0.30468
C         35.23304        31.57390         0.21823
C         34.08247        30.74903        -0.19489
C         35.25982        32.94273         0.05814
C         34.10120        33.70798        -0.34771
C         35.36202        35.86377        -0.16838
C         34.11411        35.10203        -0.37216
C         35.65178        37.31981        -0.67924
C         34.58830        38.41603        -1.26913
C         35.37095        40.20865         0.33122
C         34.34217        39.61158        -0.38359
C         35.41384        41.67587         0.35065
C         34.16203        42.45333        -0.01284
C         35.12663        44.59415         0.91123
C         34.12926        44.00285        -0.06891
C         35.51403        45.93161         0.83245
C         37.61927        27.02060         1.33003
C         36.24007        26.67170         0.85103
C         37.62471        28.60347         1.18402
C         36.34327        29.40499         1.24310
C         37.71076        31.46933         0.61424
C         36.35208        30.93049         1.02053
C         37.71703        32.95376         0.77573
C         36.56043        33.69810         0.13327
C         37.75858        35.89518         0.62830
C         36.47966        35.19097         0.28873
C         37.87873        37.33608         0.37850
C         36.53136        37.97833         0.44482
C         37.90869        40.24626         0.73203
C         36.62035        39.47952         0.60468
C         37.82822        41.75713         0.49384
C         36.52084        42.33366         1.14054
C         37.79812        44.59165         1.10280
C         36.45113        43.86764         1.17421
C         37.83653        46.07535         0.75048
C         36.50506        46.71130         0.89930
C         40.19398        24.30055         0.58007
C         39.13760        25.08017         0.58253
C         40.19723        27.11546         1.08555
C         38.83316        26.38222         0.71551
C         40.15009        28.55638         0.64825
C         38.81838        29.22986         0.43867
C         40.18839        31.43796         0.60707
C         38.85903        30.74960         0.58746
C         40.23950        32.93982         0.35893
C         39.02309        33.64645         0.91350
C         40.32474        35.86767         0.49996
C         39.03829        35.14714         0.90868
C         40.36587        37.30594         1.03753
C         39.12538        38.08169         0.66839
C         40.47723        40.18717         1.08970
C         39.24521        39.57537         0.44113
C         40.39666        41.62935         0.61674
C         39.12065        42.45575         0.85825
C         40.35546        44.57779         1.20314
C         39.09124        43.81795         0.94380
C         40.37039        46.06973         1.39696
C         39.12452        46.81674         0.90550
C         40.42760        48.87184         1.05724
C         39.35260        48.25976         1.05091
C         42.77242        24.43141         0.98657
C         41.43192        24.84264         0.77749
C         42.68962        27.18542         0.93230
C         41.44473        26.40460         0.48824
C         42.67989        28.61882         0.48835
C         41.35172        29.19476        -0.03657
C         42.59349        31.41652        -0.40069
C         41.43148        30.68386         0.28124
C         42.75758        32.87577         0.08579
C         41.57039        33.62845         0.67385
C         42.86012        35.82269         0.46795
C         41.58873        35.09305         0.74997
C         42.91528        37.31049         0.66370
C         41.71878        37.99307         1.36225
C         43.04337        40.17343         1.28120
C         41.66351        39.50822         1.14753
C         42.95571        41.69519         1.17172
C         41.63917        42.41173         0.97581
C         42.89600        44.55911         1.16153
C         41.61995        43.90717         0.66541
C         42.96720        46.00361         1.53942
C         41.68872        46.83406         1.56891
C         43.09211        48.80495         1.18480
C         41.72875        48.37622         1.51011
C         43.83348        25.03376         1.23742
C         45.28321        27.24218         0.91868
C         44.03029        26.48894         1.20734
C         45.22050        28.58004         0.15442
C         43.93808        29.35065         0.12267
C         45.07315        31.29869        -1.07853
C         43.92468        30.66279        -0.26953
C         45.03524        32.90592        -1.05784
C         43.81366        33.67434        -0.62614
C         44.98721        35.94726        -1.00936
C         43.66426        35.22257        -0.68232
C         45.04012        37.44914        -0.81132
C         43.90801        38.15967        -0.10163
C         45.18214        40.28970        -0.08057
C         44.08933        39.57813         0.32894
C         45.31253        41.72551         0.25789
C         44.18360        42.42833         0.81354
C         45.22939        44.59729         0.32718
C         44.14309        43.85231         0.74428
C         45.00043        46.11213         0.08415
C         44.41289        46.67576         1.38919
C         44.11394        48.13325         1.34811
C         47.70947        27.34922         0.64389
C         46.65165        26.72197         0.74965
C         47.74365        28.82600         0.57283
C         46.50547        29.30242        -0.19418
C         47.54664        31.69680        -0.26793
C         46.54674        30.69857        -0.86326
C         47.60838        33.01764        -1.00848
C         46.30649        33.69221        -1.28248
C         47.56294        35.96833        -1.45099
C         46.24623        35.20511        -1.34821
C         47.53058        37.45064        -1.15542
C         46.36072        38.13645        -0.93675
C         47.61876        40.32435        -0.62468
C         46.27573        39.66714        -0.96581
C         47.65796        41.84488        -0.69751
C         46.46766        42.45118         0.00572
C         47.72435        44.62105        -0.29813
C         46.56850        43.90948         0.41818
C         47.35225        45.98348        -0.53425
C         46.34432        46.65757        -0.30461
C         50.15549        29.52128         1.51254
C         48.80394        29.77462         0.99727
C         49.98639        32.12324         0.58980
C         48.73587        31.25027         0.52912
C         50.18000        33.14703        -0.52473
C         48.93133        33.74855        -1.12445
C         50.20681        35.94343        -1.59730
C         48.87820        35.20914        -1.55211
C         50.13163        37.46691        -1.65890
C         48.84214        38.18116        -1.32076
C         50.26952        40.30105        -0.46272
C         48.90871        39.56830        -0.71120
C         50.24206        41.84163        -0.73261
C         48.97518        42.49824        -0.16003
C         51.49418        44.65134         1.43274
C         48.88294        43.96192        -0.54577
C         51.05480        30.30167         1.82392
C         52.37714        32.47459         1.10531
C         51.18733        31.72232         1.48790
C         52.39197        33.53295         0.45626
C         51.63249        33.79771        -0.79570
C         52.55708        36.22328        -0.96188
C         51.51361        35.22921        -1.26793
C         52.58716        37.36495        -1.45259
C         51.45805        38.26810        -1.60952
C         52.70201        40.42151        -0.72630
C         51.48294        39.68500        -1.18375
C         52.58556        41.62436        -0.39604
C         51.52269        42.49544        -0.06029
C         51.51768        43.61218         0.71471
O         38.27832        35.63458         2.01807
O         45.87502        40.04254        -2.35353
O         43.63027        36.38604         1.57582
O         37.25634        39.75893         1.92294
O         36.93968        33.55855        -1.40235
O         40.24485        45.16859         2.53629
O         40.34702        41.30414        -0.85120
O         51.46245        39.35731        -2.56458
O         38.66356        46.37087        -0.39848
O         51.05802        35.34242        -2.63385
O         47.57699        31.90502         1.16543
O         35.12813        42.08444        -1.03493
O         47.04440        33.04203        -2.35217
O         42.63124        33.01385         1.50949
O         50.16651        32.59943         1.97326
O         42.94543        44.97151         2.56135
O         48.15585        39.67098         0.54932
O         39.46090        37.70309         2.07574
O         38.30754        33.20534         2.09920
O         45.34630        35.66684        -2.40281
O         32.31468        32.23201         0.55211
O         42.48011        28.24976         1.88933
O         37.13672        44.34862         2.38110
O         32.76488        36.87859         0.37618
O         41.10192        30.98234         1.65509
O         49.75130        32.77275        -1.85732
O         44.67011        30.90608        -2.35832
O         45.90465        28.37368        -1.12729
O         41.64293        47.69977         2.76560
O         48.14096        35.57766        -2.74475
O         39.59953        39.95457        -0.96225
O         43.92550        38.05581        -1.55550
O         37.18369        29.18086         2.44140
O         44.76350        27.16862         2.25029
O         35.16635        38.94929        -2.43981
O         42.15400        42.18732         2.31060
O         47.72816        29.44044         1.89494
O         49.30411        38.03939        -2.70210
O         34.50898        29.58814        -0.99941
O         44.00431        33.27800        -2.01438
O         36.33829        41.92324         2.49308
H         36.83780        42.54745         3.06818
O         32.29050        34.15116        -2.63765
H         32.22346        33.38400        -3.24268
O         40.31265        27.03100         2.50934
H         39.41240        27.00465         2.92076
O         31.87613        41.99924         0.72171
H         31.27626        41.22412         0.84737
O         45.24442        46.28142         2.45646
H         44.79468        46.47828         3.30527
O         46.92678        39.57853        -3.23498
H         46.56245        38.73977        -3.61396
O         43.55134        39.89249         2.60043
H         42.97723        40.36181         3.24537
O         50.57955        40.09279         0.91929
H         49.91712        40.58915         1.45946
O         34.36824        28.98566         2.60911
H         35.03665        28.77075         3.29221
O         52.24138        33.05097        -1.82660
H         51.86966        33.35063        -2.68547
O         36.49971        37.03559        -1.81106
H         36.32313        37.80570        -2.45303
O         37.91614        34.55554        -1.74784
H         37.37224        35.34550        -2.02891
O         49.04231        42.33765         1.26103
H         48.37623        42.92662         1.70304
O         42.79808        35.46232        -1.80463
H         43.31061        35.22591        -2.61332
O         40.22767        36.04533        -0.94969
H         40.20694        35.14641        -1.36679
O         47.07753        30.44811        -2.16490
H         46.28154        30.40941        -2.76625
O         41.18136        29.03255        -1.46382
H         41.64502        29.78956        -1.91699
O         37.67218        26.72449         2.72602
H         37.12790        27.39941         3.19534
O         49.91671        44.54169        -1.20571
H         49.72917        45.49734        -1.31928
O         32.11174        30.27926        -2.58387
H         31.51083        29.61017        -2.97039
O         41.88674        37.82610         2.77769
H         42.61034        37.17295         2.92850
O         50.32498        42.00672        -2.13364
H         50.21850        42.95738        -2.35872
O         46.88608        43.91462         1.85932
H         46.59051        44.78463         2.22696
O         33.48526        36.75096        -2.57566
H         34.43918        36.53488        -2.65422
O         29.88234        44.08072        -2.47901
H         29.30954        43.49271        -3.01113
O         44.02107        46.29692        -0.92289
H         44.39785        46.04489        -1.79093
O         36.12148        31.49544         2.34035
H         36.84375        31.18421         2.93093
O         30.69286        34.80851         0.53701
H         30.55408        35.63409         1.04413
O         35.93716        37.51655         1.68572
H         36.43337        37.94063         2.42347
O         34.58603        44.44641        -1.36834
H         35.10970        43.69975        -1.75697
O         42.21382        31.44412        -1.80180
H         43.09062        31.41513        -2.32936
O         30.96579        39.32289         0.27715
H         31.26614        38.44068         0.60111
O         47.58258        42.23292        -2.08956
H         46.91602        41.66348        -2.54199
O         40.10590        33.14729        -1.08114
H         40.79951        32.62099        -1.56082
O         38.51235        28.94712        -0.96732
H         39.36270        28.99899        -1.48180
O         41.42189        26.49901        -0.93828
H         40.65954        25.98773        -1.28334
O         41.59799        44.08998        -0.76572
H         40.88027        43.54455        -1.15475
O         37.66696        41.99439        -0.92299
H         38.31455        41.44529        -1.41988
