         424
 CSIRO Nanostructure Databank - Neutral Graphene Oxide Data Set
C          1.50774         1.89566        -1.10305
C          1.47212         3.29928        -1.04301
C          2.71322         1.22802        -1.21072
C          2.64899         4.06145        -1.10160
C          1.43532         6.20879        -0.74722
C          1.42054         7.57897        -0.53139
C          2.63842         5.51610        -0.97733
C          2.61154         8.32991        -0.52907
C          1.41879        10.41290         0.14003
C          1.42391        11.76921         0.45247
C          2.60530         9.74977        -0.22743
C          2.60102        12.51767         0.38300
C          1.44843        14.71082         0.03597
C          1.47010        16.06814        -0.10345
C          2.54577        13.97012         0.78092
C          2.58758        16.85658         0.29891
C          2.58728        18.26118         0.25456
C          3.93099         1.96053        -1.28783
C          3.89779         3.39216        -1.24610
C          5.16966         1.29074        -1.38317
C          5.11745         4.13514        -1.38453
C          3.85500         6.25544        -1.04454
C          3.84248         7.67000        -0.81540
C          5.09868         5.59026        -1.31013
C          5.06259         8.41858        -0.84957
C          3.82456        10.48440        -0.26393
C          3.82026        11.88380         0.02978
C          5.05705         9.82226        -0.58200
C          5.04654        12.62663        -0.00689
C          3.85008        14.69656         0.60461
C          3.80033        16.17069         0.89015
C          5.03300        14.04980         0.26568
C          5.06106        16.90846         0.55678
C          3.74615        18.99447         0.49492
C          5.02164        18.33262         0.55174
C          6.37074         2.01482        -1.49409
C          6.32228         3.44739        -1.54523
C          7.62465         1.34432        -1.49960
C          7.56710         4.19066        -1.92951
C          6.29540         6.33140        -1.40193
C          6.29302         7.76447        -1.17349
C          7.55211         5.65445        -1.57889
C          7.48637         8.51040        -1.25874
C          6.27182        10.56219        -0.60974
C          6.26620        11.96824        -0.32054
C          7.49984         9.90859        -0.97001
C          7.49502        12.70198        -0.34248
C          6.27693        14.78688         0.18726
C          6.26997        16.21465         0.34883
C          7.49264        14.11419        -0.09300
C          7.48872        16.95027         0.25168
C          6.22818        19.05445         0.49324
C          7.46738        18.38114         0.37951
C          8.84907         2.05445        -1.44897
C          8.83992         3.48953        -1.53890
C         10.07190         1.37619        -1.26879
C         10.02979         4.21911        -1.42272
C          8.75163         6.35086        -1.56467
C          8.72881         7.83741        -1.80507
C         10.01113         5.66699        -1.46305
C         10.00459         8.54402        -1.44032
C          8.70766        10.66427        -1.01648
C          8.72023        12.03637        -0.66616
C          9.96446        10.04507        -1.58189
C          9.95713        12.77524        -0.64206
C          8.72241        14.85070        -0.14467
C          8.71864        16.26446         0.04694
C          9.95799        14.17233        -0.38590
C          9.94442        16.99671         0.03203
C          8.68778        19.09416         0.36254
C          9.92154        18.42770         0.21919
C         11.30565         2.08059        -1.22561
C         11.27712         3.53601        -1.27415
C         12.52133         1.40735        -1.17460
C         12.46076         4.27604        -1.08718
C         11.20128         6.39296        -1.26179
C         11.19709         7.84934        -1.27379
C         12.42966         5.70476        -1.01013
C         12.45331         8.53643        -1.11502
C         11.22881        10.72584        -1.14153
C         11.20940        12.09098        -0.85720
C         12.50658         9.99317        -1.46822
C         12.43516        12.85091        -0.81809
C         11.18792        14.91101        -0.36481
C         11.17707        16.31941        -0.14839
C         12.43333        14.22721        -0.56967
C         12.41400        17.06051        -0.10026
C         11.13798        19.14311         0.26805
C         12.38070        18.48653         0.14249
C         13.80023         2.16450        -1.35339
C         13.69835         3.58770        -0.85765
C         15.01684         1.43188        -0.88209
C         14.78267         4.26181        -0.33495
C         13.61711         6.41505        -0.69417
C         13.63357         7.85328        -0.77832
C         14.79027         5.70732        -0.27836
C         14.88131         8.54911        -0.55937
C         13.74212        10.67820        -0.96791
C         13.70225        12.14649        -1.08053
C         14.90858        10.00284        -0.67917
C         14.98535        12.89808        -0.91217
C         13.68559        14.97488        -0.50108
C         13.64579        16.40914        -0.25797
C         14.90298        14.33220        -0.60082
C         14.87488        17.14051        -0.10880
C         13.58760        19.20258         0.27358
C         14.83684        18.55215         0.18883
C         16.08442         2.07221        -0.29039
C         15.90832         3.46329         0.29011
C         17.31387         1.39807        -0.08002
C         17.19139         4.26934         0.27093
C         15.96228         6.43462         0.05881
C         16.02016         7.83586        -0.13831
C         17.09058         5.69751         0.76743
C         17.37512         8.52203        -0.07887
C         16.15097        10.73619        -0.39698
C         16.19274        12.14546        -0.50891
C         17.30883        10.03371         0.03572
C         17.38202        12.86961        -0.23151
C         16.19144        15.09085        -0.74276
C         16.11978        16.49178        -0.20320
C         17.40774        14.32270        -0.27378
C         17.31630        17.18462         0.07811
C         16.04833        19.26036         0.37111
C         17.28225        18.59445         0.34335
C         18.48495         2.06468         0.37594
C         18.48751         3.54974         0.37884
C         19.60902         1.38330         0.77752
C         19.67491         4.27495         0.87475
C         18.42259         6.41227         0.78915
C         18.32182         7.90028         0.97371
C         19.62699         5.73151         0.94449
C         19.65650         8.58752         0.98666
C         18.47710        10.74450         0.36363
C         18.52543        12.14307         0.18572
C         19.62842        10.08529         1.10772
C         19.82001        12.83759         0.25370
C         18.55381        15.03787         0.02350
C         18.56234        16.47935         0.14628
C         19.84093        14.33916         0.15986
C         19.76230        17.17097         0.40677
C         18.52230        19.27496         0.54734
C         19.72406        18.59350         0.55949
C         20.78590         2.07268         1.39744
C         20.81213         3.57437         1.19073
C         22.08051         1.43373         0.99360
C         22.05148         4.26488         1.47711
C         20.85030         6.43740         1.24595
C         20.83748         7.88542         1.22285
C         22.05207         5.71955         1.53690
C         22.06550         8.60665         1.45702
C         20.97811        10.72526         0.89906
C         21.03760        12.13215         0.71669
C         22.14980        10.00319         1.24680
C         22.22059        12.84592         0.84121
C         21.02194        15.07930         0.63599
C         21.00793        16.45050         0.65272
C         22.18481        14.31056         1.20508
C         22.25630        17.19302         0.87393
C         20.98984        19.38042         0.77342
C         22.25451        18.56320         0.86987
C         23.26920         2.13103         1.14151
C         23.23783         3.53909         1.52711
C         24.52822         1.49334         0.95538
C         24.50140         4.18069         1.91362
C         23.24441         6.40778         1.83493
C         23.23874         7.86842         1.91633
C         24.49860         5.71985         2.13874
C         24.57697         8.61120         2.05090
C         23.42691        10.68523         1.30257
C         23.52287        12.10251         0.78407
C         24.60188        10.03033         1.63739
C         24.69724        12.87125         1.34249
C         23.49923        15.03520         1.06742
C         23.50834        16.43554         0.98721
C         24.69652        14.28862         1.27682
C         24.75855        17.14891         1.04127
C         23.52077        19.37600         0.81078
C         24.78870        18.58038         0.95415
C         25.74972         2.17069         1.14895
C         25.76646         3.54021         1.57030
C         26.98595         1.49274         0.98742
C         26.98747         4.25190         1.68441
C         25.79622         6.43161         2.00095
C         25.83409         7.83560         1.97569
C         27.00393         5.68143         1.87967
C         27.07890         8.53845         1.95511
C         25.86101        10.73216         1.71282
C         25.86377        12.14524         1.67157
C         27.09283         9.99664         1.91599
C         27.09261        12.88298         2.14471
C         25.95716        15.00370         1.40113
C         25.97184        16.44502         1.23110
C         27.11964        14.31697         1.68896
C         27.21070        17.15012         1.27506
C         25.98336        19.26576         0.99562
C         27.22900        18.57846         1.12482
C         28.20084         2.14107         1.22322
C         28.21896         3.55103         1.53389
C         29.43116         1.44149         1.06134
C         29.45789         4.23525         1.68565
C         28.25780         6.36722         1.88397
C         28.27607         7.78923         1.98904
C         29.48391         5.61892         1.83478
C         29.57345         8.47765         2.13858
C         28.30997        10.69633         1.90353
C         28.37111        12.12702         1.84197
C         29.58645         9.98315         2.06345
C         29.59705        12.77711         1.71925
C         28.39302        15.03780         1.82602
C         28.43665        16.46051         1.46313
C         29.67995        14.25203         1.83333
C         29.67556        17.11667         1.36033
C         28.45371        19.25538         1.12132
C         29.68220        18.55061         1.18670
C         30.66427         2.05359         1.26613
C         30.73482         3.43694         1.87265
C         31.84713         1.36776         0.95177
C         31.98211         4.19356         1.46782
C         30.81090         6.29171         2.13791
C         30.82402         7.76200         1.82499
C         32.01900         5.56765         1.59799
C         31.98645         8.43921         1.51313
C         30.83230        10.64684         1.64731
C         30.82963        12.05606         1.52154
C         32.00388         9.89365         1.42484
C         32.06023        12.74632         1.28978
C         30.92865        14.94227         1.44477
C         30.91657        16.38098         1.33230
C         32.08799        14.20135         1.22583
C         32.12493        17.06410         1.07739
C         30.90840        19.22402         1.07279
C         32.12703        18.50951         0.99023
C         33.10770         2.00450         0.91381
C         33.18621         3.45430         1.12920
C         34.24890         1.28407         0.56211
C         34.39162         4.10129         1.02213
C         33.22783         6.31129         1.35620
C         33.22941         7.70517         1.27814
C         34.53337         5.55869         1.39188
C         34.42282         8.41731         0.87934
C         33.21573        10.57717         1.12866
C         33.23985        11.99557         1.11054
C         34.41072         9.82296         0.80134
C         34.58149        12.68621         1.08496
C         33.34744        14.87935         0.94312
C         33.35001        16.34134         0.87642
C         34.51555        14.16495         0.78478
C         34.53014        17.03382         0.57891
C         33.33017        19.19235         0.77189
C         34.53810        18.48468         0.52405
C         35.51782         1.91526         0.39417
C         35.67506         3.32273         0.93114
C         36.57781         1.23217        -0.14385
C         36.79866         4.10924         0.29385
C         35.66785         6.26426         0.68716
C         35.61127         7.64600         0.50666
C         36.83322         5.50798         0.29227
C         36.74230         8.32078        -0.07583
C         35.52702        10.55000         0.23809
C         35.60108        11.93727         0.25339
C         36.57164         9.75123        -0.43160
C         36.69779        12.66666        -0.35377
C         35.85330        14.85864         0.64558
C         35.75433        16.32292         0.27206
C         36.81030        14.09337        -0.25128
C         36.85275        16.97994        -0.20743
C         35.70579        19.17169         0.23104
C         36.94050        18.48671        -0.24003
C         37.77896         1.95935        -0.66939
C         37.97956         3.32402        -0.03291
C         39.06828         1.18522        -0.75398
C         39.23556         4.05938        -0.51174
C         37.99905         6.21270        -0.22262
C         37.91914         7.63644        -0.37877
C         39.14501         5.51328        -0.67771
C         39.14447         8.38012        -0.80401
C         37.69245        10.49323        -1.07341
C         37.73944        11.96441        -0.99809
C         39.01505         9.81708        -1.18325
C         38.84450        12.62354        -1.58685
C         37.86329        14.76038        -0.86759
C         38.09095        16.24360        -0.66817
C         38.85981        14.04729        -1.60733
C         38.70013        16.88944        -1.91145
C         37.28575        18.99771        -1.66087
C         38.42291        18.21707        -2.27682
C         40.19495         1.83218        -1.13184
C         40.22025         3.28006        -1.27777
C         41.17099         3.95770        -2.00758
C         40.21099         6.14376        -1.39612
C         40.39914         7.64488        -1.29811
C         41.19196         5.37796        -2.01059
C         40.96406         8.27884        -2.55534
C         39.98473        10.46871        -2.08863
C         39.90798        11.87564        -2.23279
C         40.87217         9.61522        -2.81484
C         40.90521        12.60500        -2.93112
C         39.84818        14.73671        -2.37717
C         39.69012        16.16620        -2.62520
C         40.86310        13.98751        -3.00955
C         40.41465        16.81240        -3.64902
C         39.15420        18.83797        -3.30197
C         40.16387        18.14372        -3.96788
O         29.68406         9.28626         3.37327
O         24.46182         4.77975         3.25477
O         17.99047         4.10982        -0.92093
O         29.10316        14.74482         3.11103
O         23.76531         8.35185         3.22791
O         36.62213         9.95300        -1.91618
O         20.12967        13.50966        -1.03336
O         39.09854         3.52255         0.85826
O         14.46619        12.60752        -2.28322
O         39.52457         9.44025         0.15945
O          2.18864        13.99199         2.20161
H          2.51174        14.85317         2.56599
O         34.92095         5.55257         2.83244
H         34.12139         5.29861         3.34393
O         23.53437        20.43064         1.77809
H         22.59829        20.69020         1.96049
O         21.91933        14.28050         2.66729
H         22.70261        13.87792         3.10187
O         20.65535         1.87664         2.85969
H         21.44326         2.28616         3.27800
O         18.02091         8.24638        -1.35412
H         17.45561         8.60721        -2.06884
O          7.56912         4.17162        -3.41683
H          8.21391         4.85063        -3.71388
O         37.41499         2.29545        -2.06522
H         37.27439         1.45261        -2.54634
O         16.66392         5.62524         2.17622
H         16.63042         6.56078         2.49708
O         38.07157        18.90666         0.60057
H         37.79324        18.79452         1.53485
O          3.62985        16.30374         2.37092
H          3.53809        17.26492         2.55250
O         30.85362         3.24876         3.32147
H         30.86924         4.15124         3.72285
O          9.90090        10.30139        -3.05499
H         10.83251        10.16417        -3.37812
O          8.60857         7.95252        -3.27669
H          8.90760         8.87341        -3.50445
O         20.84372        20.19619         1.96644
H         20.69788        19.59285         2.72496
O         36.11738         3.13695         2.31882
H         36.03147         4.01725         2.76373
O         12.62388        10.04879        -2.96907
H         13.10119        10.88237        -3.18498
O         41.44720         7.81998        -0.30272
H         41.21692         8.64146         0.19599
O         23.81483        11.96837        -0.66860
H         24.64982        11.45967        -0.74828
O         36.45440        14.87363         1.98110
H         36.32722        13.96831         2.36128
O         15.52607         3.23691         1.67466
H         15.67062         4.08233         2.16528
O         13.98976         2.30379        -2.82318
H         14.77303         2.87884        -2.96215
O         16.35757        15.24495        -2.20266
H         16.16348        14.37459        -2.61466
O         26.99965        12.95126         3.61054
H         27.75825        13.51365         3.90289
O         30.94998         6.19277         3.61266
H         30.38016         6.88866         4.01013
O         17.67908         8.14664         2.29836
H         18.30760         7.81342         2.97678
O         19.30568        10.38060         2.52936
H         18.46304         9.90293         2.71951
O         37.59662        20.38418        -1.58725
H         38.23833        20.48879        -0.85117
O         39.11119        16.36110         0.36762
H         39.17499        17.32293         0.57930
O         35.08855        12.58250         2.48199
H         34.38172        12.92084         3.07342
H          0.56644         1.33076        -1.05309
H          0.49402         3.78845        -0.94650
H          2.74462         0.12973        -1.24492
H          0.48101         5.66751        -0.71534
H          0.45459         8.06512        -0.34447
H          0.47025         9.86488         0.20613
H          0.49118        12.25275         0.77301
H          0.57669        14.14124        -0.31827
H          0.61147        16.58336        -0.56303
H          1.65665        18.78720        -0.00775
H          5.19528         0.19111        -1.36962
H          3.71896        20.09276         0.46739
H          7.64076         0.24556        -1.44487
H          6.20949        20.15398         0.51738
H         10.07725         0.27791        -1.20637
H          8.67597        20.18817         0.47787
H         12.54323         0.30840        -1.13141
H         11.11713        20.23040         0.43365
H         15.14380         0.39658        -1.23811
H         13.55305        20.28360         0.47460
H         17.36672         0.31687        -0.28222
H         16.01672        20.34390         0.55822
H         19.60784         0.28241         0.77432
H         18.51607        20.36249         0.71177
H         22.09795         0.36929         0.71710
H         21.11097        20.11285        -0.07282
H         24.54583         0.43061         0.67388
H         23.52778        19.85050        -0.23074
H         26.98281         0.43048         0.70255
H         25.98179        20.36293         0.93186
H         29.40163         0.40328         0.69627
H         28.47006        20.35037         1.01926
H         31.78286         0.30994         0.65241
H         30.92132        20.31918         0.97353
H         34.15262         0.21472         0.31815
H         33.33071        20.29044         0.71481
H         36.43733         0.18251        -0.45369
H         35.70498        20.27194         0.22944
H         39.05709         0.09232        -0.62774
H         36.37940        18.88874        -2.31442
H         41.12124         1.27249        -1.33384
H         41.94700         3.40628        -2.55743
H         42.03019         5.87350        -2.51814
H         41.64862         7.67841        -3.17140
H         41.45479        10.03848        -3.64712
H         41.73316        12.06654        -3.41213
H         41.65379        14.50182        -3.57227
H         41.18091        16.26647        -4.21520
H         38.92255        19.87991        -3.56294
H         40.74045        18.63636        -4.76300
