         732
 CSIRO Nanostructure Databank - Neutral Graphene Oxide Data Set
C         23.03346        24.49483         1.18386
C         21.84325        25.13840         1.47712
C         23.01952        27.24888         1.75735
C         21.84220        26.51002         1.77852
C         22.95578        28.72442         2.10075
C         21.76188        29.42611         1.50040
C         22.95640        31.56681         1.46460
C         21.75799        30.76061         1.30471
C         22.91228        32.95538         1.43639
C         21.69076        33.70897         1.41867
C         22.90065        35.85987         1.54636
C         21.68856        35.07717         1.43448
C         22.84153        37.32094         1.55558
C         21.70377        38.01385         1.23496
C         22.81400        40.20137         1.30419
C         21.67123        39.44793         1.18037
C         22.78478        41.69408         1.26592
C         21.58437        42.44407         0.83757
C         22.89397        44.44032         0.14559
C         21.65578        43.69914         0.32557
C         22.92358        45.70870        -0.45356
C         21.75947        46.39643        -0.91239
C         23.12110        48.02404        -2.14723
C         21.86375        47.53086        -1.69103
C         25.57522        23.10242         0.86585
C         25.51943        24.50821         0.99514
C         24.26100        25.19555         1.20540
C         25.50474        27.31000         1.51634
C         24.26322        26.59773         1.48718
C         25.52816        28.72839         2.03590
C         24.23417        29.46758         1.78914
C         25.46286        31.57717         1.67915
C         24.22234        30.83587         1.60280
C         25.38813        33.02622         1.84735
C         24.19220        33.73930         1.26335
C         25.37687        35.95012         1.66975
C         24.12318        35.20705         1.61892
C         25.36269        37.35623         1.69198
C         24.07419        38.08586         1.99778
C         25.28727        40.19300         1.41015
C         24.08595        39.52638         1.52758
C         25.31508        41.58211         0.83161
C         24.08732        42.41889         1.15206
C         25.34404        44.43116         0.50179
C         24.12000        43.80772         0.60430
C         25.43911        45.56771        -0.51241
C         24.22860        46.49297        -0.53290
C         25.59845        47.88520        -2.25487
C         24.31365        47.47161        -1.71879
C         25.77697        48.95239        -3.13941
C         27.99535        23.15831         0.66404
C         26.79030        22.44414         0.73416
C         27.97584        24.56910         0.76559
C         26.73449        25.24809         0.96536
C         27.95895        27.40413         1.16701
C         26.71784        26.66672         1.21476
C         27.95390        28.82816         1.34068
C         26.75279        29.50317         1.61936
C         27.94483        31.68993         1.60718
C         26.71106        30.92631         1.68770
C         27.94129        33.09520         1.67794
C         26.68618        33.82023         1.89338
C         27.84100        35.96875         1.46421
C         26.62638        35.26498         1.62883
C         27.82028        37.40182         1.45314
C         26.58310        38.08390         1.60051
C         27.77709        40.23814         1.62093
C         26.56067        39.51924         1.56876
C         27.77643        41.69311         1.51180
C         26.57369        42.33808         1.14663
C         27.72266        44.42868         1.29592
C         26.53845        43.73470         0.99423
C         27.79550        46.28592         0.23781
C         26.70888        46.37958        -0.59182
C         28.19600        47.82233        -2.08938
C         26.82491        47.19344        -1.81199
C         28.23696        49.07202        -2.85785
C         27.04272        49.51365        -3.43328
C         30.43785        20.50993        -0.42473
C         29.28973        21.14140        -0.16248
C         30.49911        23.24263         0.28261
C         29.30195        22.40158         0.66757
C         30.43165        24.65790         0.34870
C         29.20297        25.32487         0.66579
C         30.39038        27.49122         0.68396
C         29.17477        26.73519         0.84454
C         30.39149        28.90759         0.88914
C         29.17931        29.58220         1.19875
C         30.40102        31.73560         1.29552
C         29.17214        30.99375         1.36515
C         30.38707        33.16415         1.31189
C         29.13626        33.85566         1.43655
C         30.28905        36.03573         0.88468
C         29.08159        35.26633         1.35972
C         30.31121        37.47827         1.31570
C         29.05402        38.14040         1.45967
C         30.27306        40.24222         1.92667
C         29.01290        39.53627         1.66780
C         30.25606        41.78849         1.89471
C         28.98821        42.43366         1.55117
C         30.23326        44.58616         1.09805
C         28.99852        43.83150         1.31240
C         30.27070        45.88967         0.48255
C         29.14344        46.57108        -0.12722
C         30.53606        48.17703        -1.33830
C         29.32873        47.50666        -1.19078
C         30.66695        49.25573        -2.27605
C         29.50985        49.75340        -2.96784
C         30.89162        51.53780        -3.89572
C         29.66387        50.91566        -3.75975
C         32.94772        19.06805        -0.99198
C         32.96534        20.43290        -0.56705
C         31.75353        21.06399         0.08362
C         32.88335        23.32381        -0.24508
C         31.71104        22.58611        -0.00743
C         32.85092        24.74200        -0.21227
C         31.61757        25.42574         0.09750
C         32.75225        27.64656        -0.06119
C         31.57146        26.82986         0.26422
C         32.84058        29.01278         0.46161
C         31.62521        29.65335         0.86096
C         32.91794        31.74988         1.39598
C         31.62109        31.03449         1.14002
C         32.86974        33.23288         1.12642
C         31.61204        33.91337         1.17767
C         32.79622        36.06571         1.08347
C         31.59160        35.32381         1.11005
C         32.79091        37.50176         1.17207
C         31.52793        38.18418         1.35960
C         32.74521        40.33705         1.61425
C         31.54990        39.58780         1.63991
C         32.72656        41.78436         1.66323
C         31.50570        42.49979         1.64649
C         32.71280        44.60081         1.25579
C         31.47403        43.89737         1.32404
C         32.69720        45.93600         0.78295
C         31.53250        46.51847         0.28161
C         32.97842        48.31418        -0.74736
C         31.59363        47.92592        -0.29176
C         33.17908        49.18726        -1.96290
C         31.93178        49.88046        -2.45765
C         33.35830        51.67543        -3.43469
C         32.05845        51.01599        -3.27670
C         33.53081        52.73208        -4.32288
C         35.43103        19.04388        -1.01378
C         34.10084        18.40295        -1.29741
C         35.34195        20.53874        -1.11745
C         34.16564        21.17049        -0.72104
C         35.36236        23.40407        -0.79193
C         34.21253        22.60290        -0.23289
C         35.27679        24.80725        -0.72460
C         34.06374        25.46819        -0.42052
C         35.30694        27.67642        -0.30322
C         34.03936        26.93751        -0.45727
C         35.30204        29.03901         0.05825
C         34.07476        29.70951         0.43130
C         35.32839        31.80085         0.73326
C         34.12337        31.08136         0.79205
C         35.33113        33.23793         0.84860
C         34.05630        33.94459         0.96557
C         35.24337        36.12361         0.87288
C         34.04269        35.38137         0.97368
C         35.24625        37.53260         0.97771
C         33.99697        38.22621         1.16597
C         35.18940        40.39664         1.28884
C         33.99665        39.66651         1.35126
C         35.19902        41.80639         1.52981
C         33.96353        42.50615         1.62235
C         35.17440        44.65539         1.75384
C         33.96432        43.93903         1.57507
C         35.11834        46.13441         1.55081
C         33.91033        46.76094         0.91887
C         35.37037        48.50042        -0.24369
C         34.06422        47.89783        -0.03196
C         35.48716        49.66117        -1.06780
C         34.37935        50.09918        -1.83277
C         35.69353        52.03848        -2.62033
C         34.47731        51.26219        -2.62324
C         35.78823        53.15900        -3.50918
C         34.73752        53.45263        -4.36902
C         37.84777        16.40310        -2.28928
C         36.67013        17.04803        -1.89163
C         37.81167        19.19503        -1.91972
C         36.63093        18.42399        -1.69477
C         37.80446        20.61013        -1.75596
C         36.47861        21.32961        -1.69822
C         37.77355        23.43769        -1.33613
C         36.55800        22.75152        -1.20104
C         37.77345        24.90904        -1.31896
C         36.45309        25.62582        -1.08583
C         37.74979        27.69960        -0.56546
C         36.51379        27.02023        -0.61998
C         37.76878        29.06793        -0.17835
C         36.54575        29.73866         0.12361
C         37.79252        31.82388         0.54127
C         36.55944        31.12330         0.45462
C         37.78329        33.25747         0.68312
C         36.51940        33.94112         0.72084
C         37.75338        36.14152         0.76206
C         36.48714        35.41395         0.41768
C         37.70487        37.56353         0.83855
C         36.48900        38.25912         0.91668
C         37.70494        40.47165         1.31451
C         36.46503        39.77225         0.78614
C         37.69817        41.82805         1.67884
C         36.42659        42.52352         1.68776
C         37.63269        44.50806         2.44520
C         36.40732        43.92023         1.94865
C         37.36356        46.75673         2.30754
C         36.35647        46.93467         1.39882
C         37.72310        48.77021         0.43937
C         36.47260        48.05970         0.51315
C         37.81173        49.96282        -0.29965
C         36.70486        50.42914        -1.05102
C         38.02433        52.40764        -1.75346
C         36.78937        51.64908        -1.79391
C         38.09491        53.69490        -2.47965
C         36.96369        54.06322        -3.43117
C         38.51306        55.58776        -4.59252
C         37.32152        54.94187        -4.55325
C         40.39539        15.05241        -2.71518
C         40.28446        16.44480        -2.80600
C         39.03827        17.11637        -2.45809
C         40.22528        19.28485        -2.49003
C         39.02756        18.53519        -2.29719
C         40.22244        20.68181        -2.22609
C         38.99686        21.34191        -1.87238
C         40.23040        23.47839        -1.61897
C         39.01389        22.76760        -1.61456
C         40.29598        24.85148        -0.97995
C         39.01563        25.63909        -1.07610
C         40.24597        27.73322        -0.69834
C         38.99849        26.99836        -0.79843
C         40.25709        29.08988        -0.34811
C         39.01422        29.76442        -0.05298
C         40.28303        31.78321         0.63800
C         39.00847        31.11119         0.35912
C         40.27183        33.29318         0.80687
C         38.98236        33.99866         0.69449
C         40.22313        36.14056         0.81818
C         38.96708        35.43078         0.73714
C         40.23431        37.53262         0.96886
C         38.98625        38.30126         0.81346
C         40.19326        40.43779         1.60221
C         38.97544        39.78733         1.12423
C         40.16322        41.78284         1.93322
C         38.93538        42.54285         1.93925
C         40.25430        44.65494         2.46332
C         38.92796        43.93314         2.33416
C         40.43512        46.11763         2.49742
C         38.59651        47.43959         2.22179
C         40.25249        48.71060         0.73722
C         38.86167        48.33498         1.21189
C         40.28457        50.15676         0.29922
C         38.98600        50.86782        -0.02234
C         40.37920        52.70911        -1.02403
C         39.13411        51.97290        -1.04087
C         40.49525        53.93000        -1.81532
C         39.39844        54.34836        -2.65712
C         40.79511        56.10036        -3.68522
C         39.55907        55.37247        -3.61205
C         41.11970        56.97963        -4.72748
C         42.66805        15.05845        -3.55014
C         41.61093        14.38220        -3.02643
C         42.55361        16.51671        -3.90564
C         41.42354        17.22556        -3.17363
C         42.61352        19.41182        -3.13198
C         41.42311        18.62794        -2.97547
C         42.62664        20.76870        -2.73917
C         41.42589        21.44238        -2.33722
C         42.67080        23.58547        -2.10050
C         41.43888        22.83767        -2.01495
C         42.70012        25.01894        -1.79414
C         41.48648        25.69375        -1.37802
C         42.65044        27.90252        -1.31912
C         41.45722        27.05669        -1.11515
C         42.74518        29.21037        -0.66208
C         41.51244        29.83349        -0.24131
C         42.82638        31.82890         0.59143
C         41.53423        31.12973         0.24151
C         42.78061        33.34062         0.41131
C         41.52937        34.03966         0.57207
C         42.68314        36.22676         0.49622
C         41.46089        35.42709         0.63920
C         42.66732        37.56750         1.10927
C         41.45989        38.21916         1.26658
C         42.69611        40.35565         1.52920
C         41.41707        39.59198         1.92000
C         42.73446        41.75710         2.09286
C         41.43458        42.47688         2.27210
C         42.76125        44.62460         2.16752
C         41.44001        43.95147         2.29704
C         42.77064        46.11105         1.86857
C         41.48018        46.81194         1.93369
C         42.71121        48.98258         1.36085
C         41.36741        48.34332         1.74504
C         42.71775        50.31400         0.74125
C         41.46446        50.87532         0.26796
C         42.68866        53.02120        -0.12340
C         41.47679        52.20650        -0.31509
C         42.74234        54.34005        -0.88352
C         41.65625        54.68463        -1.79646
C         43.10983        56.53755        -2.72368
C         41.70982        56.02512        -2.48830
C         43.35300        57.36806        -3.80193
C         42.35806        57.62257        -4.77334
C         45.12905        16.56722        -3.44396
C         43.89319        17.27181        -3.81677
C         45.17065        19.44053        -3.21387
C         43.88660        18.76390        -3.54234
C         45.07034        20.87606        -3.14563
C         43.85045        21.52269        -2.80181
C         45.11754        23.66517        -2.59398
C         43.84314        22.92084        -2.50281
C         45.15968        25.10904        -2.20660
C         43.89071        25.73524        -1.82625
C         45.22550        27.84625        -1.31923
C         43.95154        27.19156        -1.65935
C         45.22960        29.18375        -0.88199
C         43.98606        29.86600        -0.55122
C         45.25748        31.90483        -0.00136
C         44.04872        31.20407        -0.03927
C         45.26666        33.33468         0.26310
C         43.98658        34.02828         0.32516
C         45.24245        36.20142         0.70692
C         43.99254        35.50345         0.31843
C         45.21815        37.42746         1.30202
C         43.94173        38.11240         1.62238
C         45.21941        40.34531         1.85425
C         43.95751        39.60280         1.92181
C         45.23392        41.74192         1.71439
C         43.99942        42.49361         1.82605
C         45.22736        44.58915         1.53448
C         43.99327        43.86918         1.78870
C         45.22103        45.97521         1.27956
C         43.90626        46.68547         1.05514
C         45.21043        48.85595         0.72314
C         44.00869        48.18939         1.23970
C         45.20027        50.25961         0.57161
C         43.94628        50.97750         0.54186
C         45.17962        53.10403         0.19800
C         43.97982        52.37642         0.20863
C         45.12019        54.51632        -0.22661
C         44.04612        54.99768        -1.01595
C         45.27539        57.02952        -1.56467
C         44.15310        56.19816        -1.76652
C         46.24334        17.23821        -3.04819
C         47.60280        19.22409        -2.46742
C         46.33337        18.67572        -2.97447
C         48.02615        20.51044        -2.84895
C         46.24488        21.67884        -3.29508
C         47.65529        23.46560        -2.19011
C         46.38323        22.92224        -2.72665
C         47.63765        24.92040        -1.71405
C         46.42348        25.74049        -1.79515
C         47.69562        27.73911        -1.10387
C         46.44555        27.09053        -1.41056
C         47.70392        29.11585        -0.76525
C         46.48170        29.84426        -0.63991
C         47.73186        31.91814        -0.09751
C         46.50500        31.22872        -0.26752
C         47.73380        33.33936         0.18026
C         46.47246        34.03190         0.29733
C         47.76470        36.15853         0.80224
C         46.51133        35.54834         0.22995
C         47.76501        37.46991         1.32083
C         46.47660        38.09256         1.70869
C         47.73284        40.33096         1.88821
C         46.46966        39.60588         2.00135
C         47.72885        41.71911         1.72809
C         46.47955        42.44530         1.64762
C         47.70396        44.57924         1.42338
C         46.47559        43.86736         1.53467
C         47.67330        45.98501         1.17532
C         46.42615        46.68073         1.04834
C         47.64506        48.74479         0.44829
C         46.43362        48.08686         0.70881
C         47.59885        50.14422        -0.12019
C         46.41642        50.98101         0.32154
C         47.77730        53.03827         0.23404
C         46.45209        52.38201         0.29469
C         48.01660        54.37246         0.59857
C         46.11357        55.46910         0.07047
C         46.19933        56.70948        -0.57276
C         49.58601        19.21988        -1.04963
C         48.44433        18.58282        -1.52407
C         49.90298        20.57248        -1.36739
C         48.99893        21.27843        -2.21219
C         50.12722        23.45220        -1.67647
C         49.02913        22.78970        -2.48606
C         50.09796        24.79163        -1.35880
C         48.91249        25.61141        -1.47657
C         50.15816        27.64945        -0.80875
C         48.91766        26.97802        -1.15582
C         50.13306        29.03647        -0.44672
C         48.95267        29.77015        -0.44221
C         50.19524        31.85575         0.08111
C         48.97716        31.19527        -0.14057
C         50.25263        33.36557         0.00963
C         48.94278        34.04280         0.31568
C         50.20102        36.09935         0.99744
C         48.97385        35.43929         0.68540
C         50.20371        37.47256         1.36546
C         48.97502        38.15283         1.56000
C         50.24703        40.32707         1.88517
C         48.98918        39.54555         2.17425
C         50.20337        41.73436         1.88906
C         48.97683        42.44506         1.75048
C         50.16436        44.60572         1.61303
C         48.97284        43.87992         1.58430
C         50.14263        46.04997         1.38959
C         48.88551        46.71355         1.03023
C         50.12853        48.70880         0.23479
C         48.88686        48.05885         0.60021
C         50.11077        50.10086        -0.12950
C         48.91930        50.85072        -0.08085
C         50.22446        52.92121        -0.25078
C         48.96090        52.27083        -0.07025
C         50.35492        54.30347         0.00986
C         49.27141        55.00567         0.49585
C         52.20363        20.54279        -0.35626
C         51.15255        21.20174        -1.00907
C         52.62511        23.26345        -1.01773
C         51.33525        22.61316        -1.41236
C         52.57101        24.70714        -0.64398
C         51.29051        25.45537        -0.77661
C         52.62745        27.57197        -0.52149
C         51.35183        26.92522        -0.74757
C         52.62655        28.90965        -0.17411
C         51.34799        29.59952         0.23061
C         52.60150        31.73653         0.58559
C         51.42463        31.11612         0.21127
C         52.57975        33.14497         1.03275
C         51.40499        33.97302         0.77306
C         52.67060        36.02796         1.34400
C         51.43111        35.33562         1.04868
C         52.67953        37.45403         1.47394
C         51.45503        38.17589         1.55330
C         52.72516        40.27054         1.73474
C         51.47345        39.59201         1.75736
C         52.75453        41.71457         2.04960
C         51.46243        42.48907         2.12894
C         52.68642        44.61150         1.30764
C         51.48618        44.03271         2.08369
C         52.66827        45.89271         0.79162
C         51.45222        46.72595         0.94732
C         52.55077        48.58963        -0.26341
C         51.35434        48.01375         0.24830
C         52.53678        49.96998        -0.64119
C         51.34701        50.74007        -0.46749
C         52.57894        52.75511        -1.08354
C         51.38296        52.14789        -0.62419
C         53.42596        21.14978        -0.02219
C         54.90240        23.18974        -0.06859
C         53.69577        22.50381        -0.31866
C         55.06523        24.57376        -0.60635
C         53.85365        25.43153        -0.63103
C         55.18479        27.49921        -0.60064
C         53.87893        26.79962        -0.62880
C         55.16527        28.95615        -0.20421
C         53.88009        29.55780         0.24879
C         55.18037        31.69914         0.78780
C         53.87341        30.97074         0.74396
C         55.14623        33.17424         0.90021
C         53.88778        33.85477         1.33664
C         55.12999        36.01481         1.49670
C         53.89926        35.33102         1.37628
C         55.16171        37.42258         1.52540
C         53.92935        38.14672         1.52255
C         55.20479        40.27437         1.51543
C         53.94022        39.57153         1.59851
C         55.23502        41.68530         1.45714
C         54.03493        42.45855         1.81369
C         55.16309        44.48268         0.71572
C         53.98835        43.92473         1.41184
C         55.08141        45.78328         0.15236
C         53.83928        46.50796         0.19690
C         54.95853        48.45635        -0.84299
C         53.77827        47.84062        -0.29482
C         54.91738        49.81034        -1.29508
C         53.71906        50.60050        -1.11098
C         53.70088        51.99588        -1.35305
C         57.17960        23.30479         0.86709
C         55.97059        22.68318         0.75208
C         57.62520        24.37474        -0.11120
C         56.42527        25.21807        -0.57588
C         57.50500        27.26298         0.50768
C         56.47522        26.72132        -0.50629
C         57.59679        28.79961         0.60433
C         56.41298        29.63143         0.23221
C         57.68504        31.79448         0.45658
C         56.37303        31.04674         0.69444
C         57.69617        33.16797         1.06545
C         56.43058        33.91808         1.04279
C         57.67854        35.99055         1.59700
C         56.38872        35.23191         1.78626
C         57.66062        37.41383         1.55913
C         56.42664        38.12276         1.54206
C         57.66139        40.25243         1.31418
C         56.42857        39.54678         1.45284
C         57.64743        41.65108         1.06485
C         56.42282        42.37443         1.11466
C         57.55370        44.36012         0.14482
C         56.37823        43.76085         0.70061
C         57.46465        45.63583        -0.46426
C         56.24855        46.36667        -0.43136
C         57.31851        48.33815        -1.50641
C         56.18107        47.72199        -0.93818
C         57.22763        49.63602        -2.02503
C         56.05533        50.36854        -1.90925
C         60.04607        24.45557         0.46817
C         58.85048        25.17253         0.32366
C         60.07589        27.26494         0.68186
C         58.86099        26.57940         0.43210
C         60.19093        28.78323         0.55955
C         58.88854        29.51726         0.79483
C         60.07695        31.62633         1.22334
C         58.92991        31.00721         0.78694
C         60.12335        33.08057         1.37428
C         58.87671        33.81938         1.36826
C         60.14105        35.95862         1.58064
C         58.87942        35.27009         1.54786
C         60.14183        37.41110         1.56541
C         58.90971        38.12241         1.50435
C         60.13476        40.25558         1.26886
C         58.90704        39.54343         1.36382
C         60.11757        41.67381         0.96007
C         58.87279        42.34337         0.78735
C         60.04477        44.34425         0.00682
C         58.82858        43.68139         0.29605
C         60.01209        45.61585        -0.75444
C         58.66657        46.20231        -1.12691
C         59.79499        48.46375        -1.18775
C         58.63938        47.62918        -1.69104
C         61.24026        25.12325         0.73507
C         61.25676        26.51610         0.80994
C         61.27042        29.46168         1.38042
C         61.22025        30.79090         1.60997
C         61.31054        33.79319         1.51737
C         61.31939        35.19908         1.59165
C         61.34517        38.15547         1.55241
C         61.34206        39.53219         1.40474
C         61.30689        42.40614         0.76150
C         61.26722        43.71380         0.29783
C         61.17476        46.51006        -0.72902
C         61.01049        47.88943        -0.85960
O         45.12400        24.72623        -3.65536
O         55.89004        24.70919        -1.83148
O         42.37545        54.28135         0.55252
O         55.74356        33.87757        -0.26203
O         33.15728        27.51599        -1.48043
O         52.41620        22.88491        -2.40668
O         27.69791        46.66079        -2.85801
O         40.34434        32.40264         1.99281
O         43.83693        38.63511         2.99215
O         51.72441        24.90358         0.54311
O         59.35152        45.31844        -2.07700
O         53.14565        33.23786         2.41204
O         46.46771        38.57525         3.08712
O         56.92134        26.78503         1.70634
O         47.34943        21.09719        -3.92929
O         55.96432        29.70557        -1.17611
O         42.18626        41.89845         3.43896
O         43.61026        48.79308         2.51004
O         30.24139        41.04117         3.15279
O         25.91267        33.48072         3.12070
O         52.13570        42.00282         3.34435
O         43.17167        27.90506        -2.68955
O         53.83467        29.85166         1.71315
O         56.10987        27.33674        -1.74852
O         34.17941        46.94600         2.36006
O         37.41206        45.67226         3.19608
O         58.08184        29.13148         1.95010
O         37.05470        54.67614        -2.10064
O         39.10726        39.25766        -0.32762
O         43.98182        18.22600        -4.92684
O         47.00395        55.19089         1.11191
O         39.48783        46.91171         3.13797
O         36.96279        25.44479        -2.44403
O         50.97738        46.81947         2.32199
O         27.61373        45.79181         1.53595
O         54.29359        43.49586         2.80426
O         43.12398        45.61583         3.19689
O         43.32656        36.13636        -0.84411
O         23.48717        42.25716         2.45934
O         47.46434        23.74628        -0.76872
O         36.48494        40.02925        -0.67047
H         37.39885        39.78778        -0.96910
O         24.28983        47.31540         0.66266
H         23.47506        47.85899         0.69712
O         50.54097        33.68127        -1.41592
H         49.73052        33.47788        -1.93062
O         60.51008        29.02894        -0.84488
H         61.32465        28.52974        -1.06285
O         40.48658        24.55742         0.46042
H         40.52721        25.41651         0.93281
O         33.53528        48.23696        -3.04390
H         33.64060        48.76035        -3.86714
O         49.01848        39.32559         3.63044
H         48.14427        38.92950         3.87021
O         41.36065        39.35568         3.34096
H         41.62943        40.19303         3.79621
O         58.08525        23.59509        -1.25257
H         57.33818        23.58042        -1.90094
O         25.38766        44.87240        -1.79684
H         26.22581        44.38086        -1.92338
O         51.65982        44.49729         3.44146
H         52.36541        43.93226         3.83868
O         43.54259        46.47052        -0.34147
H         44.26389        46.82410        -0.90371
O         42.71069        40.51816         0.08953
H         42.40955        39.68218        -0.32839
O         24.00263        38.13131         3.46943
H         23.25526        38.72086         3.70614
O         56.32429        34.85115         3.19909
H         56.29014        35.67126         3.73494
O         36.42377        35.46861        -1.06888
H         36.38983        36.41726        -1.32001
O         57.71752        32.01760        -0.99228
H         56.96057        32.61534        -1.20491
O         46.57142        35.85605        -1.21334
H         45.68189        35.67661        -1.59007
O         24.45526        33.72144        -0.19011
H         23.67158        34.10823        -0.63574
O         58.84569        47.55785        -3.13443
H         59.33237        46.71146        -3.29275
O         34.50269        22.45021         1.21088
H         33.75902        21.92454         1.59169
O         35.67543        18.76261         0.43057
H         34.94129        19.18018         0.93239
O         51.16465        29.26096         1.65273
H         52.03005        29.44637         2.09877
O         41.13370        56.97054        -1.49711
H         40.21942        56.66778        -1.30537
O         38.61906        51.55991         1.23062
H         39.35148        52.17358         1.45543
O         42.98938        31.62242         2.04052
H         42.13867        31.91279         2.45514
O         29.51124        21.97693         2.06948
H         29.46986        22.78220         2.62854
O         49.33315        23.01593        -3.87786
H         48.75021        22.42452        -4.40781
O         25.27722        41.41612        -0.62753
H         26.03464        40.84847        -0.88338
O         40.51508        47.89966        -0.44810
H         39.82543        48.10109        -1.11523
O         30.13126        36.08772        -0.59541
H         30.18261        35.16450        -0.92442
O         33.11391        31.63211         2.86254
H         33.95211        32.09333         3.08157
O         36.09706        21.48417        -3.12704
H         36.69699        22.15377        -3.52167
O         47.32972        49.93676        -1.57712
H         48.12861        49.51135        -1.95704
O         25.64768        28.58921         3.50452
H         25.64679        29.49363         3.88459
O         31.89846        20.75207         1.50911
H         31.06246        21.06466         1.94847
O         22.76634        28.78600         3.55498
H         22.72432        29.73258         3.80679
O         41.00381        48.96198         2.98555
H         41.75991        48.85080         3.60258
O         42.14758        16.53013        -5.31157
H         42.54873        17.34366        -5.70419
O         31.26991        48.84040         0.81392
H         31.89094        48.64809         1.54966
H         23.00969        23.42332         0.94705
H         20.89883        24.57725         1.48139
H         20.89097        26.99289         2.03988
H         20.83513        28.85848         1.33384
H         20.83736        31.24958         0.95436
H         20.72834        33.17844         1.43560
H         20.72079        35.59641         1.43565
H         20.77224        37.48319         0.99247
H         20.70273        39.93099         0.99301
H         20.60110        41.95530         0.90774
H         20.71684        44.17849         0.01334
H         20.75908        45.99224        -0.70194
H         23.11363        48.81268        -2.91363
H         20.94879        48.01972        -2.05429
H         24.65814        22.50156         0.91058
H         24.89758        49.46099        -3.56074
H         26.80165        21.34626         0.69763
H         27.05270        50.40441        -4.07782
H         30.42170        19.59040        -1.02647
H         28.33636        20.74788        -0.54422
H         30.95345        52.44482        -4.51122
H         28.79587        51.33818        -4.28391
H         31.99363        18.52711        -1.05973
H         32.71511        53.04717        -4.98634
H         34.05132        17.34057        -1.57350
H         34.81036        54.30308        -5.06010
H         37.82264        15.31550        -2.43724
H         35.77944        16.43384        -1.70372
H         38.71417        56.26440        -5.43396
H         36.61570        55.06354        -5.38698
H         39.54950        14.45025        -2.35941
H         40.41810        57.14145        -5.55749
H         43.54998        14.49803        -3.88863
H         41.67598        13.29737        -2.85966
H         44.35377        57.79920        -3.94943
H         42.59051        58.28753        -5.61629
H         45.13897        15.46992        -3.41130
H         45.36011        57.98324        -2.10243
H         47.13543        16.65668        -2.77498
H         47.00099        57.40845        -0.30220
H         50.24435        18.66673        -0.36565
H         48.20663        17.57215        -1.16323
H         51.32638        54.80291        -0.09536
H         49.36041        56.05881         0.79084
H         52.07334        19.48613        -0.08065
H         52.61749        53.83944        -1.25311
H         54.19299        20.54119         0.47785
H         54.60232        52.50512        -1.71774
H         57.93735        22.87967         1.54272
H         55.77127        21.78375         1.35547
H         58.09458        50.07806        -2.53340
H         56.02486        51.38686        -2.31712
H         60.03894        23.36278         0.35579
H         59.72701        49.55713        -1.27777
H         62.17517        24.55790         0.85251
H         62.21627        27.02790         0.97391
H         62.14488        28.88918         1.72423
H         62.04531        31.27331         2.15544
H         62.27343        33.26387         1.51969
H         62.29490        35.70136         1.64709
H         62.31143        37.63963         1.63118
H         62.30624        40.05672         1.37193
H         62.28512        41.93533         0.92410
H         62.21474        44.23265         0.10087
H         62.15264        46.11702        -0.42123
H         61.87618        48.54209        -0.67072
