         314
 CSIRO Nanostructure Databank - Neutral Graphene Oxide Data Set
C         30.40421        57.15898        -0.22960
C         30.39400        58.54138        -0.69723
C         29.17415        59.32728        -0.86866
C         30.41273        61.45069        -0.88207
C         29.21931        60.69742        -1.00562
C         32.85932        52.90442         0.44200
C         32.80101        54.34053         0.48643
C         31.64792        55.05300         0.21009
C         32.80713        57.24775         0.23370
C         31.61750        56.49907         0.07793
C         32.80231        58.75180         0.26779
C         31.69062        59.34735        -0.56022
C         32.85925        61.51172        -0.46351
C         31.63951        60.82832        -0.59729
C         35.30025        48.59745         0.36755
C         35.25747        49.99773         0.58133
C         34.08409        50.75899         0.50226
C         35.29063        52.92651         0.90595
C         34.02598        52.18012         0.67390
C         35.32728        54.39697         0.66176
C         34.03271        55.09027         0.84173
C         35.32101        57.33396         0.61277
C         34.01730        56.59746         0.72960
C         35.30402        58.70128         0.03474
C         34.12844        59.39369        -0.11223
C         35.32226        61.53866        -0.36399
C         34.11792        60.83217        -0.35721
C         37.76758        44.30481         0.05288
C         37.74886        45.71052         0.22700
C         36.54216        46.44701         0.25602
C         37.77411        48.55600         0.57057
C         36.50366        47.85010         0.43659
C         37.78117        49.95813         0.60521
C         36.53227        50.63454         1.10186
C         37.73539        52.80258         0.27300
C         36.56968        52.16014         0.96935
C         37.68535        54.28326        -0.01387
C         36.50683        55.06102         0.46167
C         37.84311        57.22986         0.07818
C         36.60319        56.54020         0.51628
C         37.86514        58.58683        -0.16545
C         36.58154        59.29530        -0.38672
C         37.89306        61.49059        -0.35962
C         36.59673        60.85827        -0.54650
C         40.25235        40.05934        -0.50533
C         40.22902        41.45016        -0.29089
C         39.00298        42.18171        -0.21526
C         40.25797        44.35593        -0.23162
C         38.97050        43.57396        -0.07191
C         40.21256        45.70114         0.43243
C         39.01597        46.40189         0.46114
C         40.21772        48.56398         0.70712
C         38.99959        47.83532         0.61840
C         40.21615        49.94341         0.47088
C         38.99624        50.67322         0.40666
C         40.17664        52.73746        -0.40446
C         39.00627        52.07929         0.16854
C         40.23758        54.22745        -0.60849
C         38.95927        55.00242        -0.36673
C         40.37516        57.15097        -0.26965
C         39.09082        56.44409         0.01950
C         40.33472        58.62605        -0.41404
C         39.10942        59.30845        -0.37182
C         40.33846        61.44650        -0.38104
C         39.09512        60.76314        -0.40456
C         42.75679        35.73931        -0.80105
C         42.74543        37.13475        -0.64468
C         41.50802        37.89206        -0.66555
C         42.69839        39.96720        -0.10891
C         41.44489        39.26720        -0.46999
C         42.73545        41.45542        -0.24503
C         41.47216        42.19856        -0.12047
C         42.76379        44.27144         0.31066
C         41.50731        43.56333         0.06699
C         42.76477        45.67085         0.66328
C         41.46461        46.31088         0.88596
C         42.75958        48.52233         0.93183
C         41.46479        47.85908         1.04734
C         42.75353        49.97683         0.75328
C         41.47558        50.70903         0.52100
C         42.73058        52.83777        -0.03077
C         41.53123        52.02874        -0.17856
C         42.72469        54.24033        -0.25677
C         41.54770        54.93622        -0.53254
C         42.82932        57.17106        -0.82081
C         41.50647        56.40564        -0.97268
C         42.82359        58.63808        -0.58016
C         41.57783        59.32276        -0.50020
C         42.80388        61.43968        -0.33352
C         41.56731        60.75800        -0.42173
C         45.17966        32.88206        -0.72200
C         43.98425        33.57796        -0.82451
C         45.21590        35.68736        -0.61569
C         43.96774        35.00094        -0.74988
C         45.22115        37.10129        -0.54701
C         44.01080        37.79935        -0.50974
C         45.28661        40.02755        -0.35370
C         43.99973        39.23463        -0.15961
C         45.22955        41.37102         0.40877
C         44.03567        42.18100        -0.07925
C         45.25189        44.33437         0.35328
C         43.98033        43.60645         0.26404
C         45.24361        45.73584         0.77665
C         43.97153        46.38593         0.87537
C         45.23227        48.55729         1.05205
C         43.96352        47.83150         0.99536
C         45.24876        49.96839         0.87390
C         44.03202        50.63215         0.38986
C         45.12558        52.87054         0.80867
C         44.01377        52.12066         0.15270
C         45.05697        54.35217         0.76826
C         44.11820        54.87085        -0.39112
C         45.23366        57.18407        -0.02729
C         44.10090        56.39680        -0.49607
C         45.26909        58.54522        -0.33865
C         44.06403        59.33138        -0.53438
C         45.18050        61.62188        -0.05370
C         44.05129        60.78672        -0.36350
C         46.39902        33.55303        -0.52510
C         47.67430        35.64847        -0.18428
C         46.44726        34.95652        -0.46719
C         47.75280        37.03830        -0.14070
C         46.55503        37.82624        -0.62819
C         47.72688        39.87741         0.45289
C         46.47402        39.18122         0.04962
C         47.71244        41.36123         0.52763
C         46.56786        42.08184         0.38334
C         47.75974        44.28946         0.87920
C         46.57864        43.56619         0.38779
C         47.72277        45.66636         1.01742
C         46.47172        46.42198         0.96678
C         47.72017        48.61919         1.12705
C         46.45519        47.84098         1.15740
C         47.63349        50.08549         1.36202
C         46.43057        50.75345         1.02418
C         47.57704        52.94802         1.26404
C         46.40499        52.18396         1.08146
C         47.46603        54.36465         1.84111
C         46.23253        55.16961         1.22843
C         47.60399        57.35297         1.00485
C         46.31535        56.60001         0.79803
C         47.69689        58.67325         0.32878
C         46.58557        59.13445        -0.34990
C         47.70251        61.71514         0.35142
C         46.52686        61.27664        -0.25833
C         48.95644        37.75198         0.09649
C         50.19436        39.91101         0.14942
C         49.01209        39.16412         0.23804
C         50.24232        41.33148         0.32915
C         49.01135        42.02178         0.79458
C         50.28181        44.21704         0.70923
C         49.02723        43.51585         1.01405
C         50.32475        45.65064         0.94803
C         49.00042        46.38640         1.25521
C         50.39273        48.50027         1.11278
C         49.03711        47.86623         1.06256
C         50.57471        49.82743         1.48088
C         48.70656        50.89824         1.73778
C         50.12847        52.94145         1.28973
C         48.82019        52.27311         1.45412
C         50.09282        54.33889         1.24764
C         48.91582        55.13748         1.85630
C         50.18448        57.38564         1.35710
C         48.85350        56.63466         1.44660
C         50.10484        58.77859         0.74978
C         48.90361        59.45780         0.43659
C         50.13155        61.58388         0.48860
C         48.90785        60.91537         0.34630
C         51.38447        42.08548         0.09725
C         52.58166        44.26961        -0.09684
C         51.41889        43.52466         0.23969
C         52.60435        45.69113        -0.04305
C         51.47238        46.40673         0.44123
C         52.59429        48.59219         0.01368
C         51.48685        47.82308         0.48521
C         52.47716        50.03772         0.06111
C         51.47400        50.71484         0.83966
C         52.46033        52.89148         0.36336
C         51.34982        52.17368         0.87165
C         52.59761        54.33296         0.60543
C         51.34211        55.11468         1.07233
C         52.49455        57.22140         0.41734
C         51.33635        56.56635         0.80599
C         52.54463        58.69135         0.40198
C         51.33589        59.44677         0.59155
C         52.59640        61.55349         0.40379
C         51.36026        60.88169         0.48279
C         53.75732        46.44686        -0.37967
C         55.07585        48.47694        -0.54832
C         53.79154        47.85852        -0.36888
C         55.20890        49.81975        -0.93357
C         53.37255        50.86773        -0.63794
C         54.77563        52.88130        -0.67787
C         53.54255        52.24057        -0.33814
C         54.74820        54.38181        -0.86503
C         53.66630        55.08989        -0.05996
C         54.84276        57.19513        -0.54561
C         53.65225        56.46471        -0.03510
C         54.90729        58.68486        -0.38070
C         53.71997        59.38642         0.13049
C         55.04407        61.47179         0.12093
C         53.79343        60.82501         0.23046
C         56.20514        50.75368        -0.65901
C         57.23633        52.91379        -0.85764
C         56.02675        52.17765        -0.80233
C         57.30092        54.32735        -0.78298
C         56.08387        55.06895        -0.69366
C         57.36140        57.16165        -0.59017
C         56.12613        56.45790        -0.59902
C         57.40544        58.59454        -0.44955
C         56.21747        59.34420        -0.29725
C         57.51336        61.40743        -0.05364
C         56.26200        60.75355        -0.06588
C         58.53373        55.01136        -0.78144
C         59.82500        57.11299        -0.68139
C         58.58750        56.42202        -0.68919
C         59.88200        58.51723        -0.54275
C         58.66524        59.26356        -0.40850
C         59.98218        61.33151        -0.20961
C         58.71553        60.68280        -0.22778
C         61.12243        59.21231        -0.51852
C         61.15764        60.59737        -0.35806
O         47.11044        54.10986         3.13710
O         43.31716        39.46407         1.11964
O         49.73873        50.31673         2.47198
O         36.04513        52.75177         2.19373
O         52.40615        54.71016         2.00039
O         48.39946        48.29924        -0.18760
O         46.73191        60.22945        -1.19289
O         43.75557        56.81432        -1.87325
O         42.08340        50.72416         1.85448
O         44.71137        54.36865        -1.53484
O         36.15368        57.16072         1.79290
O         33.87759        55.92140         2.03866
O         36.55181        59.91299        -1.68639
O         40.07736        56.68804         1.09102
O         31.40975        58.71331        -1.80403
O         54.62372        58.04869        -1.71542
O         49.83962        45.96494         2.34328
O         46.07212        44.12096        -0.87532
O         54.10773        50.33048        -1.67762
O         41.35437        46.96644         2.18943
O         40.86418        52.00506        -1.46972
O         46.82987        39.20981         1.45169
O         48.00912        57.36489         2.39826
O         45.74260        56.20633         2.10420
O         44.24960        51.18700        -0.95331
O         39.39303        54.70674        -1.71544
O         44.46127        53.66791         1.88189
O         43.51753        41.90023        -1.43365
O         49.09804        42.57474         2.15518
O         37.29943        53.32815        -1.05175
O         49.30231        55.19457         3.24361
H         48.51280        54.80871         3.73620
O         32.52912        59.13904         1.65100
H         33.11961        58.61642         2.23587
O         36.53937        50.31882         2.52736
H         36.14556        51.09815         2.98973
O         46.82803        38.02421        -2.04418
H         46.26566        38.77487        -2.35691
O         44.98079        41.16888         1.81626
H         45.58786        40.45099         2.12652
O         45.48960        40.28830        -1.76176
H         44.77323        40.90416        -2.06858
O         40.35770        44.65591        -1.67599
H         40.40213        43.79826        -2.15088
O         50.59179        57.61812         2.74096
H         50.25295        56.84814         3.26586
O         41.19448        56.45179        -2.37833
H         41.99281        56.13717        -2.85973
O         54.37721        54.56272        -2.27908
H         54.42345        55.52381        -2.47758
H         29.45529        56.60506        -0.17619
H         28.20465        58.81060        -0.81867
H         30.36608        62.54664        -0.94993
H         28.27706        61.24361        -1.15701
H         31.93803        52.35977         0.18381
H         30.71977        54.50332        -0.00824
H         32.87125        62.60461        -0.59615
H         34.36412        48.06834         0.12789
H         33.14380        50.24587         0.24359
H         35.31200        62.63522        -0.27956
H         36.81077        43.76008         0.02617
H         35.59417        45.90642         0.10848
H         37.93038        62.57669        -0.18864
H         39.29427        39.54583        -0.68040
H         38.05451        41.62301        -0.24165
H         40.34124        62.54580        -0.34049
H         41.80642        35.19779        -0.92197
H         40.57783        37.33686        -0.86298
H         42.78709        62.53322        -0.21092
H         45.17482        31.78414        -0.77429
H         43.03683        33.03470        -0.95192
H         44.95866        62.59016         0.42134
H         47.32664        32.97369        -0.41117
H         48.56731        35.04685         0.04816
H         47.72281        62.67470         0.88915
H         49.90001        37.18552         0.14848
H         51.13255        39.39066        -0.09743
H         50.14622        62.68336         0.49013
H         52.30056        41.58078        -0.24445
H         53.47992        43.73452        -0.43724
H         52.62372        62.65274         0.41526
H         54.67086        45.90669        -0.66944
H         55.97242        47.88383        -0.31612
H         55.08634        62.56688         0.21869
H         57.18126        50.40025        -0.29643
H         58.18163        52.35331        -0.90629
H         57.55422        62.49539         0.10254
H         59.46943        54.43796        -0.85435
H         60.75995        56.54016        -0.76979
H         60.02426        62.42149        -0.07391
H         62.05747        58.64442        -0.62567
H         62.12639        61.11631        -0.34208
