         273
 CSIRO Nanostructure Databank - Neutral Graphene Oxide Data Set
C        -10.23674         0.64686         2.27972
C         -9.60320         1.71890         1.53294
C         -8.44587         0.82514        -0.17897
C         -7.22541         1.45483        -0.22328
C         -6.09850         0.71373        -0.81333
C         -4.91748         1.39237        -1.07088
C         -3.80835         0.72959        -1.76428
C         -2.43550         1.42701        -1.89219
C         -1.40866         0.69718        -1.03458
C         -0.23125         1.44869        -0.52304
C          1.00064         0.69084        -0.08642
C          2.26128         1.42102         0.23993
C          3.54889         0.65253         0.49332
C          4.81416         1.42710         0.61433
C          6.06388         0.66357         0.42868
C          7.37723         1.36078         0.51930
C          8.47988         0.53369        -0.03635
C         10.30740         1.72489         0.18771
C         11.32797         0.73114         0.52414
C         -8.94593         2.80664         2.00872
C         -8.05138         3.55412         1.10697
C         -7.02518         2.79983         0.34109
C         -5.74087         3.30254         0.34586
C         -4.59625         2.71101        -0.40788
C         -3.79018         3.67378        -1.33265
C         -2.51375         2.96434        -1.70418
C         -1.20924         3.69462        -1.47722
C         -0.15298         2.95445        -0.66654
C          1.11418         3.67231        -0.30178
C          2.38247         2.87890        -0.07750
C          3.65379         3.57449         0.30196
C          4.85123         2.78719         0.71916
C          6.13045         3.53042         0.96297
C          7.45203         2.83337         0.71227
C          8.66418         3.63143         0.17010
C          9.97075         2.96380         0.64156
C         -8.08931         4.92635         1.12691
C         -7.22084         5.83147         0.37710
C         -6.49878         5.39083        -0.86464
C         -5.11573         6.00916        -1.09393
C         -3.83644         5.21960        -1.34473
C         -2.49758         5.98457        -1.43779
C         -1.20657         5.19148        -1.33435
C         -0.01397         5.87098        -0.69765
C          1.32721         5.11393        -0.79657
C          2.37580         5.79676         0.09145
C          3.55738         5.03575         0.60584
C          4.80403         5.76734         1.04975
C          6.12189         5.02605         1.05459
C          7.36817         5.76873         0.68115
C          8.53491         5.12479         0.44883
C         -7.03809         7.10652         0.80462
C         -6.08178         8.10913         0.19994
C         -5.03774         7.49217        -0.76195
C         -3.75405         8.25760        -0.94660
C         -2.46669         7.50209        -1.22435
C         -1.19580         8.16712        -0.83456
C          0.01867         7.36954        -0.60243
C          1.34654         8.06997        -0.52331
C          2.54423         7.27362        -0.10739
C          3.58046         8.05751         0.72328
C          4.81507         7.25769         1.16239
C          6.19313         7.94144         1.33276
C          7.20529         7.25974         0.37741
C         -5.36881         8.82007         1.34379
C         -4.23593         9.50409         1.15481
C         -3.68267         9.64805        -0.25946
C         -2.31690        10.25123        -0.27115
C         -1.15649         9.55046        -0.51499
C          0.14358        10.35484        -0.50268
C          1.41121         9.54834        -0.33110
C          2.59860        10.15867        -0.10847
C          3.90809         9.38641        -0.00614
C          5.02494        10.10476         0.71450
C          6.08833         9.44538         1.19139
C        -10.24037        -0.64093         1.86179
C         -9.61114        -1.27998         0.67019
C         -8.67121        -0.61871        -0.33940
C         -7.59943        -1.39233        -1.12861
C         -6.21214        -0.73543        -1.00952
C         -5.07125        -1.47898        -1.25230
C         -3.84976        -0.81067        -1.73269
C         -2.52775        -1.54224        -1.68653
C         -1.29170        -0.78227        -1.31838
C         -0.09827        -1.53345        -0.80044
C          1.16284        -0.72900        -0.59465
C          2.47015        -1.45889        -0.48159
C          3.59033        -0.84705         0.32456
C          4.87033        -1.66856         0.58375
C          6.12288        -0.82565         0.39285
C          7.43113        -1.49468         0.74055
C          8.65980        -0.74947         0.38149
C          9.95113        -1.43727         0.27031
C         11.17660        -0.62472         0.38181
C         -9.46648        -2.74863         0.81346
C         -8.62732        -3.50511         0.09070
C         -7.59789        -2.98745        -0.93267
C         -6.24120        -3.61538        -0.36672
C         -4.90374        -2.91435        -0.76384
C         -3.88750        -3.75409        -1.57156
C         -2.56481        -3.05019        -1.67306
C         -1.29642        -3.78498        -1.38617
C         -0.06206        -3.01301        -1.00531
C          1.27231        -3.69721        -1.13241
C          2.52433        -2.94026        -0.83632
C          3.84337        -3.67264        -0.70262
C          5.05080        -2.93341        -0.23384
C          6.35647        -3.67247         0.02160
C          7.48405        -2.98880         0.76205
C          8.85801        -3.67767         0.84937
C         10.00072        -2.81236         0.31634
C         -8.75246        -5.00900         0.13338
C         -7.43452        -5.76757         0.12011
C         -6.31258        -5.12776        -0.63930
C         -5.14776        -5.97230        -1.06696
C         -3.83189        -5.31906        -1.52601
C         -2.64034        -5.75518        -0.63696
C         -1.31507        -5.10490        -1.03513
C         -0.03550        -5.89585        -1.01711
C          1.29320        -5.20249        -1.11817
C          2.55676        -5.93484        -0.69123
C          3.84689        -5.17821        -0.56668
C          5.17988        -5.90799        -0.64228
C          6.43607        -5.14065        -0.26218
C          7.63106        -5.84517         0.27492
C          8.77600        -5.16646         0.53104
C         -7.38871        -7.05273         0.52520
C         -6.41166        -8.04364        -0.06416
C         -5.11819        -7.41732        -0.59549
C         -3.79527        -8.01434        -0.23009
C         -2.55932        -7.28107        -0.70043
C         -1.12392        -7.69696         0.44259
C         -0.01180        -7.31486        -0.50904
C          1.27021        -8.11240        -0.45719
C          2.57733        -7.44268        -0.98916
C          3.85745        -8.15385        -0.49789
C          5.18514        -7.41133        -0.59279
C          6.49179        -8.15189        -0.20361
C          7.46053        -7.29338         0.65841
C         -6.16444        -9.26682         0.78577
C         -4.96805        -9.71053         1.18753
C         -3.69584        -8.91985         1.01117
C         -2.42838        -9.75334         0.98204
C         -1.22857        -9.17900         0.70601
C          0.06513        -9.84128         0.84977
C          1.25173        -9.29575         0.45198
C          2.53005        -9.95705         0.91490
C          3.80658        -9.41439         0.30754
C          5.06093        -9.90141         0.93839
C          6.25818        -9.39406         0.62991
O         -3.41144        -3.35408        -2.86466
O          9.44571         1.17426        -0.81332
O         -3.58533         2.41612         0.61534
H         -3.99769         1.90722         1.34430
O          4.76976        -2.17976         1.92151
H          4.38839        -1.47224         2.49217
O         -0.32989        -2.42655         0.33460
O          2.34198         7.61532        -1.51252
O          7.73111         1.92336         1.82984
O          5.33503        -6.69986        -1.86027
O          4.53406         6.43659         2.33460
O          2.89044         8.42952         1.93631
H          2.95762         7.65994         2.54924
O         -0.24701         6.47348         0.59110
O         -4.52630        10.58167        -0.94815
H         -5.44791        10.21611        -0.94963
O         -1.23678        -6.93833         1.52089
O         -7.91104        -3.57454        -2.14610
O         -6.21263        -5.62443        -2.01120
O          2.05952        -3.14661        -2.21556
O          3.35841         3.20308        -1.10529
O         -2.42065         6.90027        -2.55847
O         -3.49298         3.34921        -2.71000
O          6.07016        -0.09773        -0.85619
O          4.74229        -2.99595        -1.63889
O          2.40089         5.34835         1.46131
O         -7.01946         4.71704        -1.72807
O          3.05183        -5.56283         0.62454
O         -4.12276        -0.03746        -2.94819
O         -1.95800         1.31552        -3.23973
H         -2.60619         0.77114        -3.74893
O          2.65454        -9.78569         2.33440
H          1.80071       -10.01223         2.75682
O         -4.48368        -8.46703        -1.42882
O          7.25408        -2.23628         1.99358
O          2.12689        -0.69542        -1.68633
O         -2.98984        -5.31776         0.67260
H         -2.27824        -5.63114         1.29987
O         -9.59649         1.54713         0.13664
O         -4.67563         5.69072        -2.43052
O          6.20302         4.20856         2.26670
O         -6.37251        -3.48982         1.07746
H         -5.82319        -4.18223         1.50438
O          0.26974        -8.30015        -1.52256
O          6.87030        -4.16234        -1.25769
O         -0.76935         4.52962        -2.58123
O          1.30124         1.06459         1.28181
O          7.17578        -8.51538        -1.41019
H          6.83143        -7.94115        -2.13213
O         -3.57470        -5.79709        -2.83695
H         -4.32410        -5.53512        -3.41333
O          0.66763        -5.76167        -2.29446
O         -6.84063         9.10711        -0.53088
H         -7.11229         8.71313        -1.38756
O        -10.05757        -0.90940        -0.67096
O         -4.77686         8.25696        -1.97453
O          0.07746        11.38992         0.47975
H          0.33155        11.01505         1.34782
O         -2.16462        -7.68669        -1.93760
H         -2.73751        -8.42461        -2.24978
O          9.22732        -3.74531         2.26524
H          8.74992        -3.00500         2.71528
O          3.25504        -0.25836         1.61391
O          2.59079        -7.54386        -2.41079
H          2.78152        -8.47806        -2.64412
O         -3.62424        -8.03324         2.15803
H         -2.71608        -7.62252         2.18395
O         -7.92741        -1.14997        -2.50178
H         -8.03517        -2.05237        -2.91582
O         -1.36384         1.05838         0.35731
O         -1.57806        -1.10516        -2.70732
O          4.43056         9.15903        -1.32636
H          3.74145         8.69967        -1.86231
O          0.05615         3.55716         0.66507
O         -4.14618        -2.70113         0.46895
H         -4.78711        -2.42274         1.16355
O          3.89273        -9.47328        -1.15303
O          8.57871         3.60430        -1.27453
H          8.89271         2.71900        -1.58173
O          6.90451        -7.27462         1.98613
H          7.50857        -6.77093         2.57065
O          6.67894         7.34790        -0.94784
H          7.34482         7.00748        -1.57968
O         -9.43585        -5.38911        -1.06590
H         -8.99309        -4.86472        -1.79709
O         -5.32001         4.27727         1.21528
H         -6.03694         4.47753         1.85627
O          1.80739         5.12060        -2.13575
H          1.07264         4.85072        -2.73816
O         -7.12818        -8.52979        -1.23306
H         -7.25048        -7.76850        -1.84247
O          6.68553         7.70480         2.66277
H          6.09452         7.03603         3.08630
H         12.08466        -1.22537         0.56047
H         12.31792         1.10046         0.83679
H         10.55795         3.44636         1.43533
H          9.41072         5.72949         0.15881
H          8.20401         7.77125         0.43659
H          6.92086        10.01079         1.63800
H          5.01820        11.20597         0.71191
H          2.62276        11.25708        -0.02531
H          0.19088        10.87026        -1.50293
H         -2.24573        11.32729        -0.05184
H         -3.75339        10.03750         1.98722
H         -5.82674         8.76840         2.34387
H         -7.60972         7.46204         1.67800
H         -8.80939         5.40972         1.80604
H         -9.01096         3.10002         3.06715
H        -10.66804         0.88379         3.26448
H        -10.70177        -1.37272         2.54602
H        -10.15219        -3.24451         1.52123
H         -9.37552        -5.32725         1.00941
H         -8.27692        -7.48473         1.01434
H         -7.05994        -9.87230         0.99486
H         -4.90052       -10.64211         1.77076
H         -2.48356       -10.81853         1.25796
H          0.07934       -10.79284         1.40784
H          2.47024       -11.06286         0.68551
H          4.98032       -10.77093         1.60689
H          7.16310        -9.84934         1.06009
H          8.46054        -7.80706         0.67722
H          9.64327        -5.74473         0.89206
H         10.98989        -3.29846         0.30751
