         280
 CSIRO Nanostructure Databank - Neutral Graphene Oxide Data Set
C         30.29418        31.70176        -1.09592
C         30.50475        32.91612        -1.34305
C         30.58701        36.04376        -1.70399
C         30.68254        37.27302        -1.84545
C         30.54382        40.28658        -1.11396
C         30.44586        41.43668        -0.64640
C         32.53793        28.92254        -0.19014
C         31.43193        29.48267        -0.43602
C         33.06189        31.62425        -1.10391
C         31.05275        30.53398        -1.27776
C         32.93847        32.98472        -0.91523
C         31.66354        33.76315        -1.02662
C         33.04672        36.09396        -1.12779
C         31.70235        35.25821        -1.13695
C         33.06709        37.38498        -2.10109
C         31.75539        38.20482        -1.89315
C         32.86798        40.43873        -1.50644
C         31.67186        39.52274        -1.54348
C         32.78964        41.79685        -0.89092
C         31.56338        42.33030        -0.46828
C         32.71201        44.33958         0.17289
C         31.67226        43.67895         0.00494
C         35.17750        27.35764         1.07142
C         34.96043        28.80792         0.89703
C         33.78788        29.52137         0.30730
C         35.21918        31.67574         0.22486
C         34.19796        30.80695        -0.52235
C         35.31093        33.07509        -0.26868
C         34.16352        33.75055        -0.63557
C         35.50411        35.50752        -1.58656
C         34.23972        35.11956        -1.18201
C         35.53417        37.78959        -2.02343
C         34.28372        38.29077        -1.82948
C         35.41235        40.49923        -1.12955
C         34.20553        39.76539        -1.61600
C         35.35684        41.84148        -0.82414
C         34.06231        42.58108        -0.85757
C         35.32039        44.76151         0.06030
C         34.04328        44.05522        -0.35064
C         35.30162        45.76007         1.18491
C         37.52597        27.35887         1.72675
C         36.24404        26.79358         1.36203
C         37.26982        28.80786         1.74107
C         36.29024        29.50634         1.08160
C         37.76093        31.59764         0.38709
C         36.40149        31.00635         0.87044
C         37.84100        33.10380         0.16944
C         36.55466        33.87889         0.00906
C         37.94584        35.52836        -1.21170
C         36.71031        34.93992        -1.04218
C         37.97951        37.76050        -1.52662
C         36.75733        38.46878        -1.62173
C         37.86491        40.40154        -0.63733
C         36.66907        39.77763        -1.10307
C         37.82033        41.74229        -0.16342
C         36.63578        42.62428        -0.51223
C         37.64994        44.33888         1.17153
C         36.36275        43.69335         0.58818
C         37.73611        45.88544         1.41410
C         36.30695        46.24488         1.71020
C         40.03711        24.67001         2.08717
C         39.05606        25.39896         1.93179
C         40.14260        27.52082         2.02382
C         38.77711        26.80393         1.89432
C         40.29524        28.88336         1.33694
C         39.19873        29.88507         1.61654
C         40.33388        31.58470         0.31800
C         39.06680        31.02640         0.91000
C         40.30074        33.11378         0.51860
C         39.04210        33.74914        -0.01055
C         40.28919        35.94541        -0.36019
C         39.13699        35.13411        -0.49779
C         40.31232        37.43239        -0.48528
C         39.11676        38.25554        -0.85432
C         40.36713        40.37769        -0.48415
C         39.07093        39.64104        -0.57829
C         40.24055        41.75197         0.08735
C         39.02391        42.35314         0.32180
C         40.22831        44.43756         1.27754
C         38.97110        43.64548         1.06126
C         40.20638        45.67329         1.85389
C         38.83728        46.22014         2.41821
C         40.15562        48.21341         2.97393
C         39.06328        47.70647         2.61800
C         42.41183        24.62451         1.16980
C         41.48311        24.93975         2.28378
C         42.79839        27.40782         1.73417
C         41.45408        26.76057         2.14679
C         42.89903        28.90451         1.50060
C         41.59952        29.63618         1.55473
C         42.84222        31.67012         0.66569
C         41.56438        31.02901         1.05029
C         42.81714        33.17164         0.78405
C         41.59888        33.76951         0.00402
C         42.70630        35.96415         0.28765
C         41.54216        35.28783         0.05649
C         42.69207        37.45338         0.44045
C         41.42192        38.11888        -0.02407
C         42.72282        40.35340         0.21419
C         41.39169        39.60273         0.33962
C         42.75755        41.70985         0.19922
C         41.50315        42.55374         0.04535
C         42.75074        44.62724         0.78854
C         41.54547        43.69150         1.06501
C         42.75647        45.75711         1.84492
C         41.44537        46.57322         1.71522
C         42.76745        48.33623         2.79352
C         41.48185        47.86611         2.67512
C         43.45316        25.29169         0.92554
C         45.12718        27.22532         0.58586
C         43.83921        26.63116         1.01751
C         45.12289        28.75639         0.38315
C         44.01538        29.49966         0.69077
C         45.13984        31.62732        -0.26302
C         43.95932        30.94261         0.40583
C         45.17733        33.13073        -0.03975
C         44.09099        33.83376         0.34917
C         45.22666        36.02809        -0.06756
C         44.06166        35.32983         0.58974
C         45.19551        37.38792        -0.33083
C         43.90006        38.10369        -0.24377
C         45.25167        40.25384        -0.06383
C         43.94513        39.60176        -0.16443
C         45.26376        41.61619         0.57926
C         44.06771        42.47251         0.04843
C         45.24274        44.49496         0.96494
C         44.06354        43.83987         0.72981
C         45.24371        45.90881         1.39773
C         44.06309        46.57168         1.74593
C         43.84076        47.83610         2.29545
C         47.37970        27.70512         1.35586
C         46.32833        27.09710         1.61317
C         47.70349        28.75823         0.40786
C         46.39851        29.42456        -0.15670
C         47.69317        31.68326        -0.28677
C         46.44432        30.94874         0.20760
C         47.70725        33.05473        -0.46944
C         46.39438        33.83726        -0.60942
C         47.65823        35.96099        -0.69956
C         46.51639        35.25717         0.00090
C         47.60277        37.42581        -1.03258
C         46.36938        38.15550        -0.66051
C         47.74565        40.27695        -0.36227
C         46.40425        39.55461        -0.40449
C         47.56671        41.79232        -0.50851
C         46.51662        42.37594         0.32307
C         47.77173        44.56783         0.39998
C         46.59103        43.74108         0.92834
C         47.57756        45.88695         0.88376
C         46.57026        46.43996         1.38530
C         50.25425        29.31654         0.94148
C         48.97581        29.51049         0.24421
C         50.27359        31.66681        -0.57833
C         48.95473        30.91376        -0.37747
C         50.19392        33.14289        -0.56437
C         48.96098        33.78001        -0.59517
C         50.09240        35.95327        -1.35174
C         49.00601        35.31096        -0.46401
C         50.08212        37.49196        -1.13846
C         48.90010        38.16606        -1.14113
C         50.05420        40.44940        -1.50138
C         48.72692        39.67629        -1.38113
C         50.04474        41.96843        -1.40433
C         48.76126        42.64393        -0.91441
C         50.10173        44.59251        -0.53692
C         48.80481        44.03268        -0.32362
C         51.26504        30.04294         0.84291
C         52.69014        30.93605        -1.01648
C         51.57693        30.93565        -0.23900
C         53.71762        30.92130        -1.75445
C         51.41027        33.95200        -0.53536
C         52.47690        36.18273        -0.97881
C         51.40365        35.25592        -0.96798
C         52.53518        37.40433        -1.24532
C         51.37749        38.28324        -0.81352
C         52.46353        40.61828        -1.16857
C         51.37171        39.67140        -1.39305
C         52.52906        41.84843        -1.20655
C         51.40503        42.76803        -1.35793
C         51.21895        44.06954        -0.70665
O         47.66819        42.41726        -1.85018
O         43.34138        28.30364         2.75303
O         41.45034        30.75716         2.48674
O         33.59036        40.43711        -2.79068
O         43.61432        38.88360        -1.44316
O         35.42668        31.71509         1.69465
O         38.08201        36.53161        -2.17642
O         33.95098        29.49438         1.72563
O         34.03539        43.76482        -1.76261
O         38.13553        43.54973         2.28416
O         48.62330        28.43211        -0.66969
O         49.60891        30.99262        -1.68999
O         35.67215        36.50478        -2.54248
O         50.66963        42.62562        -2.56245
O         47.37279        36.36920        -2.05856
O         38.20082        29.51604         2.49752
O         50.76971        39.90664        -2.67163
O         32.24762        30.92346        -2.03666
O         31.47721        34.64615         0.14138
O         40.83766        27.37097         3.29690
O         36.34531        34.54015         1.30786
H         35.99780        33.84749         1.91714
O         41.98131        24.59247         3.51002
H         41.34399        24.83354         4.21219
O         41.79199        42.98037         2.30250
H         41.80653        43.64245         3.03539
O         44.98901        31.47883        -1.69888
H         45.37005        30.60120        -1.96681
O         45.06305        41.45850         2.02770
H         44.11319        41.25669         2.18423
O         42.74099        45.22772         3.19209
H         43.65107        44.95833         3.43914
O         33.11128        36.88588        -3.43348
H         33.18927        37.63838        -4.05556
O         41.55081        43.06427        -1.32827
H         41.33286        42.28193        -1.90455
O         37.72628        31.09691        -0.99716
H         38.63106        31.19410        -1.38678
O         38.55872        45.63523         3.66505
H         39.23507        45.91090         4.31606
O         35.69397        43.01021         1.65456
H         36.35038        42.86590         2.37641
O         41.34532        47.16576         0.42853
H         40.40955        47.41124         0.25977
O         40.90657        40.48596        -1.85222
H         41.62123        39.81583        -1.96842
O         42.84424        37.75290         1.87140
H         43.45246        37.05803         2.24330
O         52.55963        33.37222        -0.12404
H         53.30204        34.00042        -0.24733
O         35.84353        45.46367        -1.05777
H         35.39380        45.13061        -1.87025
O         42.64711        45.28387        -0.47812
H         42.28703        44.65585        -1.14673
O         40.20383        33.29204         1.95642
H         39.83662        34.18170         2.14176
O         40.22269        28.54245        -0.07425
H         40.22221        29.36503        -0.62261
O         45.53837        26.57029        -0.58399
H         46.41611        26.90160        -0.86575
O         46.14754        33.97970        -2.02028
H         45.86505        33.09573        -2.35753
O         46.90899        43.51919         2.35040
H         46.30022        42.80690         2.66498
O         38.10346        46.51348         0.19524
H         37.36774        46.37931        -0.45583
O         49.85434        35.69608        -2.73510
H         48.93563        35.99313        -2.94882
O         46.42625        29.26227        -1.58424
H         47.36014        29.05381        -1.84760
O         49.41940        35.61089         0.89385
H         48.65449        35.40238         1.48561
O         41.76559        33.41252        -1.39251
H         42.61924        33.77771        -1.71182
O         46.48568        30.98438         1.64962
H         46.42370        31.91551         1.94966
O         51.40623        38.45202         0.59996
H         51.36255        37.56807         1.02238
O         34.92876        30.26030        -1.64673
H         34.28029        30.05672        -2.35640
O         40.43580        31.20134        -1.07410
H         41.04746        31.83760        -1.53120
O         48.33516        40.07349         0.94426
H         47.71371        40.41197         1.62403
O         40.95665        39.66142         1.71304
H         41.53223        39.04673         2.22783
O         48.08243        39.77619        -2.66007
H         48.76735        39.64646        -3.35272
O         33.11835        36.68703         0.18253
H         32.80584        36.01806         0.83382
O         42.70621        33.44758         2.20595
H         41.94889        32.92486         2.57163
O         46.86898        35.06816         1.40584
H         46.05543        35.24788         1.94674
O         37.03013        43.32812        -1.72465
H         37.15063        42.66313        -2.43514
O         44.32495        42.66080        -1.35499
H         43.52335        43.06445        -1.75816
O         44.28789        35.51320         2.05468
H         43.72818        34.81808         2.49907
