         638
 CSIRO Nanostructure Databank - Neutral Graphene Oxide Data Set
C         23.14775        69.46620        -1.87839
C         23.17103        70.89157        -1.95482
C         22.12004        71.50747        -2.69294
C         23.23974        73.64369        -2.69032
C         22.12304        72.86249        -2.99668
C         25.68107        65.60009        -0.11522
C         25.53067        67.00148        -0.17962
C         24.44009        67.44868        -1.00368
C         25.44245        69.98210        -0.17089
C         23.90604        68.73754        -0.94765
C         25.42642        71.21679        -0.83297
C         24.28458        71.71805        -1.51949
C         25.56149        73.81737        -1.96532
C         24.34664        73.07959        -2.02013
C         27.78480        61.31166         1.15884
C         27.88240        62.81341         1.01858
C         26.80547        63.51492         0.55192
C         27.87524        65.70144         0.95967
C         26.80455        64.96015         0.46719
C         27.70264        67.18617         1.18626
C         26.58107        67.83935         0.36599
C         27.86849        69.96936         0.07861
C         26.62531        69.23882         0.16064
C         27.91580        71.28129        -0.39795
C         26.63849        72.07999        -0.54635
C         27.99113        73.89215        -1.59939
C         26.74824        73.28182        -1.44072
C         30.46763        57.20046         0.33949
C         30.44861        58.59067         0.58199
C         29.19935        59.35706         0.54290
C         30.31945        61.31167         1.62570
C         29.11547        60.62641         1.00417
C         30.30046        62.83962         1.52398
C         29.09861        63.51107         1.36445
C         30.32776        65.73224         1.59940
C         28.98485        64.98766         1.70314
C         30.35463        67.20545         1.29023
C         29.04884        67.95275         1.12516
C         30.40224        69.89011         0.10685
C         29.11044        69.32045         0.53173
C         30.39972        71.21177        -0.41596
C         29.16608        71.91774        -0.63787
C         30.43235        73.88299        -1.40594
C         29.20219        73.25058        -1.19026
C         33.01617        53.03875        -0.56711
C         33.02858        54.53096        -0.74805
C         31.74432        55.19796        -0.34795
C         32.92857        57.23279         0.39408
C         31.72326        56.51636         0.15353
C         32.88929        58.50870         1.17647
C         31.63266        59.27255         0.88297
C         32.84774        61.35865         1.60217
C         31.60949        60.76955         0.96195
C         32.82133        62.85628         1.76822
C         31.54419        63.57176         1.57671
C         32.82153        65.67593         1.29262
C         31.58359        64.96302         1.42537
C         32.82287        67.08798         0.90121
C         31.61576        67.80973         0.78149
C         32.84725        69.78601        -0.07179
C         31.60738        69.15812         0.27486
C         32.86136        71.14300        -0.51709
C         31.64004        71.85279        -0.69821
C         32.89122        73.86361        -1.35865
C         31.66059        73.21737        -1.15359
C         35.39289        48.68827        -0.31064
C         35.38471        50.10108        -0.33182
C         34.22093        50.87335        -0.40524
C         35.44815        53.01371        -0.19494
C         34.22041        52.32251        -0.39412
C         35.53939        54.51275        -0.32657
C         34.19955        55.15060         0.05725
C         35.44596        57.28035         0.59785
C         34.23771        56.67933        -0.08266
C         35.40791        58.62828         0.99509
C         34.16080        59.32909         1.08914
C         35.35168        61.42162         1.64192
C         34.14341        60.68184         1.40351
C         35.32196        62.85983         1.74574
C         34.09278        63.58918         1.66652
C         35.32475        65.78631         1.56550
C         34.05197        64.98225         1.44154
C         35.31587        67.05091         0.74582
C         34.06611        67.71055         0.52762
C         35.29143        69.69800        -0.32390
C         34.07490        69.06209         0.02957
C         35.32102        71.07399        -0.66301
C         34.10231        71.79732        -0.77234
C         35.34800        73.83873        -1.35807
C         34.11689        73.18211        -1.16481
C         37.81331        44.38819        -0.39528
C         37.81717        45.78900        -0.23383
C         36.61458        46.54902        -0.33651
C         37.83620        48.62422         0.16558
C         36.60085        47.94588        -0.17053
C         37.87990        50.02949         0.22675
C         36.69993        50.77714        -0.26015
C         37.83494        52.87304         0.62617
C         36.71039        52.27330        -0.14335
C         37.81541        54.34870         0.89321
C         36.67575        55.15140         0.43675
C         37.85936        57.17995         1.19410
C         36.65143        56.52074         0.72820
C         37.85170        58.57061         1.41771
C         36.61773        59.31421         1.35047
C         37.82617        61.37138         2.01315
C         36.57331        60.69071         1.66118
C         37.83024        62.90552         1.94538
C         36.55726        63.59609         1.68314
C         37.81268        65.62644         1.12381
C         36.57897        64.96128         1.39644
C         37.78420        66.97463         0.64492
C         36.52924        67.62965         0.38145
C         37.82344        69.66786        -0.39283
C         36.53981        68.87292        -0.47521
C         37.81133        71.07807        -0.72889
C         36.56980        71.76077        -0.87969
C         37.81232        73.84176        -1.35870
C         36.57434        73.15536        -1.19575
C         40.20744        40.06926        -0.76843
C         40.15371        41.37139        -0.02652
C         38.96969        42.21806        -0.38102
C         40.22665        44.26876         0.14387
C         38.99320        43.60473        -0.21383
C         40.26223        45.70114         0.23924
C         39.05067        46.45826         0.04419
C         40.26765        48.53360         0.56292
C         39.06807        47.87417         0.28094
C         40.22875        49.92195         1.12938
C         39.06344        50.72219         0.59415
C         40.29112        52.82183         1.09223
C         39.10677        52.12616         0.72728
C         40.28535        54.25663         1.28015
C         39.09207        55.01816         1.18249
C         40.30694        57.10279         1.62100
C         39.08632        56.43045         1.31827
C         40.31157        58.54011         1.74444
C         39.09120        59.26158         1.66810
C         40.31740        61.39472         1.85162
C         39.10615        60.67235         1.83032
C         40.32427        62.84122         1.70773
C         39.09976        63.56549         1.63800
C         40.28660        65.60437         0.95740
C         39.06180        64.92260         1.22621
C         40.23481        66.95384         0.54990
C         39.01004        67.63461         0.35334
C         40.28183        69.71155        -0.25082
C         39.01954        69.00805        -0.13293
C         40.34271        71.10238        -0.82833
C         39.01394        71.79709        -0.88455
C         40.33474        73.87007        -1.52323
C         39.02174        73.17639        -1.20545
C         42.67171        36.08895        -2.30982
C         42.65875        37.39800        -1.85923
C         41.32778        38.10530        -1.76395
C         42.65680        40.08941        -0.80498
C         41.38005        39.45418        -1.08001
C         42.66589        41.44332        -0.33424
C         41.44986        42.13295        -0.10021
C         42.69633        44.17899         0.43253
C         41.45237        43.51857         0.18343
C         42.68575        45.61127         0.93662
C         41.46447        46.36883         0.49724
C         42.78562        48.50816         0.86064
C         41.56221        47.85075         0.25907
C         42.75209        49.95039         1.10379
C         41.54107        50.66741         1.06954
C         42.76047        52.79125         1.33427
C         41.53035        52.08659         1.18233
C         42.76571        54.21254         1.52581
C         41.51394        54.94476         1.55598
C         42.73652        57.03662         2.17180
C         41.49783        56.34271         1.76873
C         42.76162        58.53235         2.19634
C         41.51987        59.26392         1.93637
C         42.81089        61.36774         1.69667
C         41.55050        60.67399         1.87689
C         42.81918        62.82482         1.53652
C         41.55322        63.52062         1.50663
C         42.76212        65.60539         1.10869
C         41.54983        64.92210         1.18619
C         42.77717        66.93389         0.51682
C         41.48746        67.63609         0.20928
C         42.71995        69.86453         0.13753
C         41.48028        69.10029         0.02945
C         42.71161        71.22264         0.02213
C         41.39334        71.96093        -0.11750
C         42.72130        73.97227        -0.75973
C         41.53523        73.30900        -0.78648
C         45.11996        33.35683        -3.11276
C         43.90840        34.02964        -2.93524
C         45.12315        36.03554        -2.21347
C         43.89221        35.37184        -2.48583
C         45.11849        37.38427        -1.75299
C         43.88209        38.06835        -1.55493
C         45.12870        40.08903        -0.82362
C         43.88042        39.42133        -1.06061
C         45.14654        41.43604        -0.36942
C         43.90997        42.12308        -0.14730
C         45.18673        44.12099         0.63695
C         43.89627        43.47748         0.29872
C         45.21165        45.61029         0.84744
C         43.95620        46.36391         0.47026
C         45.21645        48.41068         1.49680
C         43.94300        47.79662         0.95553
C         45.23310        49.91935         1.30596
C         43.98870        50.64121         1.24452
C         45.23125        52.76584         1.40498
C         43.99558        52.06815         1.33107
C         45.23515        54.18857         1.49927
C         43.99807        54.88754         1.60669
C         45.26917        57.08363         1.64196
C         44.05239        56.31064         1.98523
C         45.27172        58.47371         1.54828
C         44.08386        59.26832         1.92408
C         45.19819        61.41373         0.99284
C         43.99257        60.67537         1.53173
C         45.33354        62.75029         1.73347
C         44.02756        63.50439         1.50882
C         45.24362        65.57359         0.70044
C         44.08351        65.00139         1.51562
C         45.19614        67.01079         0.49574
C         44.01576        67.71505         0.57732
C         45.22426        69.90329         0.50323
C         43.92560        69.19837         0.77301
C         45.21326        71.32609         0.39857
C         43.89184        72.06106         0.47001
C         45.14103        74.07036        -0.37472
C         43.95041        73.40699        -0.22787
C         46.33229        33.99295        -2.85903
C         47.58021        36.01243        -2.16500
C         46.36292        35.34090        -2.40997
C         47.60052        37.35829        -1.73087
C         46.35844        38.05177        -1.50786
C         47.61063        40.07502        -0.87454
C         46.36736        39.40154        -1.06435
C         47.63158        41.43490        -0.45736
C         46.40344        42.11390        -0.18187
C         47.66434        44.17501         0.32068
C         46.44565        43.45673         0.26747
C         47.68599        45.60336         0.53687
C         46.48475        46.32341         0.71396
C         47.65667        48.43339         0.94166
C         46.47902        47.73942         0.96697
C         47.73463        49.83140         1.48826
C         46.43498        50.59382         1.33922
C         47.69078        52.72630         1.39626
C         46.48231        52.04270         1.36517
C         47.76130        54.20401         1.64988
C         46.45534        54.91860         1.48328
C         47.65420        57.01163         0.97806
C         46.46405        56.33143         1.37196
C         47.62196        58.42991         0.79044
C         46.44183        59.17623         1.08771
C         47.62499        61.27376         0.60239
C         46.46119        60.59650         0.98481
C         47.88889        62.74226         0.95226
C         46.64309        63.62142         1.41720
C         47.62835        65.58448         0.07581
C         46.43596        64.88630         0.58725
C         47.61489        67.03740         0.03436
C         46.43321        67.73207         0.32355
C         47.68918        69.84889         0.51705
C         46.40424        69.16057         0.41135
C         47.67251        71.36721         0.47099
C         46.39728        72.04274         0.24992
C         47.61836        74.16249        -0.07764
C         46.42060        73.46013        -0.06123
C         48.82340        38.03800        -1.52521
C         50.07768        40.08204        -0.95099
C         48.85105        39.38736        -1.11735
C         50.10557        41.43200        -0.56884
C         48.87319        42.12166        -0.31108
C         50.14057        44.19760         0.13265
C         48.89741        43.49878         0.04639
C         50.14938        45.61116         0.38121
C         48.93898        46.29810         0.50923
C         50.18149        48.49343         0.82319
C         48.91244        47.79810         0.40033
C         50.17997        49.86134         0.83126
C         48.86791        50.61054         0.80361
C         50.12684        52.75055         0.76502
C         49.00628        51.99502         1.43833
C         50.05712        54.13146         0.59229
C         48.90276        54.88297         0.93100
C         50.03321        56.97069         0.24477
C         48.84641        56.26864         0.68527
C         49.92848        58.36967        -0.30674
C         48.72406        59.11259         0.21261
C         49.77584        61.13365        -0.73660
C         48.69456        60.49589         0.08660
C         49.56072        62.60306        -0.85041
C         48.74760        63.41682        -0.12423
C         49.94548        65.59789        -0.89403
C         48.77117        64.86856        -0.28092
C         49.94427        67.10667        -0.89701
C         48.81390        67.79574        -0.24049
C         50.15441        69.87538        -0.03847
C         48.90848        69.13688         0.10266
C         50.19667        71.31315         0.47186
C         48.93235        72.02663        -0.05613
C         50.08873        74.22368         0.19755
C         48.91552        73.53218         0.10008
C         51.33593        42.14824        -0.43059
C         52.69978        44.18349         0.03542
C         51.36289        43.48910        -0.09179
C         52.61118        45.64775         0.38351
C         51.43088        46.30777         0.51809
C         52.68201        48.49757         0.63386
C         51.45285        47.72364         1.07511
C         52.63793        49.89929         0.43867
C         51.38811        50.62333         0.62352
C         52.50649        52.75045         0.06191
C         51.31060        52.01425         0.43304
C         52.49617        54.11417         0.01581
C         51.18429        54.82577        -0.13537
C         52.46902        57.04580        -0.04816
C         51.22462        56.30884         0.07496
C         52.40537        58.52177        -0.04432
C         51.21984        59.18012        -0.15060
C         52.45003        61.30641        -0.92490
C         51.17547        60.72396        -0.15131
C         52.53257        62.83158        -0.90863
C         51.44635        63.62984        -1.26287
C         52.49414        65.69958        -0.63431
C         51.31992        64.99532        -0.94381
C         52.50669        67.15422        -0.69489
C         51.24662        67.88261        -1.18416
C         52.48422        70.06498        -0.81340
C         51.24144        69.29349        -0.61517
C         52.54498        71.47982        -0.38831
C         51.42231        72.10065         0.08801
C         52.63776        74.28216        -0.00860
C         51.42330        73.55332         0.49734
C         53.91667        46.32752         0.73558
C         55.07141        48.50820         0.12744
C         53.90174        47.81451         0.46460
C         55.04524        49.90896        -0.11520
C         53.80907        50.58126         0.04485
C         54.92272        52.75690        -0.77012
C         53.64015        51.95154        -0.53651
C         54.92176        54.25488        -0.67343
C         53.78055        54.87558         0.12832
C         54.94466        57.10837         0.27352
C         53.66796        56.37061        -0.02456
C         54.90465        58.52118        -0.29708
C         53.68424        59.29899         0.21717
C         54.91654        61.38463        -0.27301
C         53.70961        60.69591        -0.36210
C         54.94853        62.82547        -0.34417
C         53.72157        63.53355        -0.54078
C         54.94674        65.66005        -0.26434
C         53.71667        64.96603        -0.48145
C         54.96169        67.16809        -0.13136
C         53.68970        67.82930        -0.60235
C         55.05111        70.00542        -0.62050
C         53.77660        69.28623        -0.84933
C         55.02827        71.44128        -0.54224
C         53.81304        72.16542        -0.43897
C         55.07814        74.28894        -0.38199
C         53.82472        73.60325        -0.28467
C         56.22742        50.65729        -0.45419
C         57.42001        52.80121        -0.63621
C         56.22863        52.04600        -0.68308
C         57.47130        54.22960        -0.53000
C         56.22603        55.05283        -0.81208
C         57.39005        57.08688         0.01390
C         56.21885        56.39674        -0.11990
C         57.40131        58.54304         0.10954
C         56.19537        59.26346        -0.02585
C         57.40116        61.38872         0.05859
C         56.16939        60.66873        -0.05453
C         57.37900        62.80941         0.05758
C         56.16744        63.52999        -0.12851
C         57.40401        65.73572        -0.04844
C         56.15044        64.97521        -0.11659
C         57.43388        67.06766        -0.38364
C         56.18657        67.78304        -0.83919
C         57.49379        69.99130        -0.63809
C         56.24437        69.29098        -0.63775
C         57.47573        71.41684        -0.63229
C         56.27409        72.14262        -0.53960
C         57.53861        74.28631        -0.45773
C         56.29025        73.59517        -0.48209
C         58.64276        54.89574        -0.24423
C         59.88788        57.13208        -0.13238
C         58.67647        56.32627         0.23492
C         59.88604        58.48795        -0.06910
C         58.64492        59.24691         0.10548
C         59.89938        61.39753         0.04494
C         58.64250        60.65685         0.10671
C         59.88578        62.77394         0.07729
C         58.63452        63.52861         0.46149
C         59.84010        65.68561         0.17484
C         58.66049        65.00664         0.14722
C         59.81575        67.18753         0.27610
C         58.75022        67.76156        -0.64507
C         59.95771        69.93203        -0.40963
C         58.73418        69.27533        -0.54350
C         60.03843        71.37436        -0.68945
C         58.73326        72.15566        -0.81617
C         60.01416        74.25658        -0.48802
C         58.76431        73.61285        -0.57233
C         61.19656        59.20659        -0.32162
C         62.36650        61.36108         0.05489
C         61.17269        60.69261        -0.06050
C         62.43047        62.80020         0.13126
C         61.15271        63.50920        -0.08495
C         62.38288        65.71258         0.37465
C         61.14054        65.00311         0.02469
C         62.35008        67.11357         0.41017
C         61.16123        67.85038         0.12587
C         62.42400        69.97420         0.04505
C         61.18351        69.23771        -0.07334
C         62.44789        71.40263        -0.08551
C         61.26073        72.11973        -0.37175
C         62.48564        74.23352        -0.25554
C         61.24412        73.54464        -0.39468
C         63.59313        63.52312         0.26923
C         64.83951        65.64775         0.44418
C         63.62214        64.97162         0.38985
C         64.92032        67.07156         0.73503
C         63.57197        67.86763         0.69992
C         64.85403        69.99422         0.47261
C         63.61675        69.30023         0.38738
C         64.86690        71.40103         0.36413
C         63.67544        72.11006         0.10688
C         64.94366        74.23656        -0.05948
C         63.68360        73.55069        -0.04386
C         66.12914        67.86187         0.48265
C         67.33844        69.98119         0.30239
C         66.11239        69.24280         0.48650
C         67.38076        71.36301         0.29154
C         66.14050        72.15070         0.65682
C         67.39824        74.20671        -0.05262
C         66.14571        73.56814         0.12608
C         68.58946        72.08108         0.07704
C         68.59073        73.47171        -0.04497
O         43.56906        59.05032         3.28197
O         49.52798        66.34579        -2.09181
O         42.21158        66.94003        -0.87896
O         37.79419        62.18023         3.22495
O         46.97419        64.24573         2.65019
O         43.44583        56.48416         3.32089
O         24.22799        69.44671         0.23695
O         29.03561        69.09998         2.03602
O         30.48903        66.71622         2.67256
O         47.76716        70.66863         1.75582
O         45.16705        44.71339         2.00713
O         54.64515        53.62128        -1.94922
O         53.14555        69.77150        -2.08533
O         64.20650        67.49067         1.95126
O         37.38609        53.34936         1.94588
O         59.47788        71.73978        -2.00547
O         50.32486        63.10483        -1.91840
O         61.20131        64.34578        -1.31149
O         32.72747        61.92139         2.94142
O         37.05751        51.62436        -1.41980
O         40.58283        73.69780        -2.93611
H         40.75020        72.73356        -3.06954
O         48.94243        71.77829        -1.49134
H         48.28876        72.37605        -1.91158
O         43.67723        69.40629         2.23003
H         44.33807        68.86927         2.72053
O         43.63746        72.31497         1.89841
H         43.67006        71.42718         2.33673
O         48.00227        49.68879         2.90440
H         47.28050        49.13608         3.28041
O         45.24840        48.18182         2.94605
H         44.35759        48.38490         3.30345
O         33.96703        54.89060         1.45172
H         34.08546        53.93142         1.61716
O         28.58703        64.98339         3.10378
H         28.18782        65.87057         3.29184
O         66.18505        72.29069         2.12164
H         67.01797        72.76013         2.34028
O         51.55939        73.61761         1.96573
H         51.06965        72.83039         2.32064
O         55.11956        67.49300         1.27978
H         54.47407        66.96299         1.79207
O         53.79137        59.51115         1.64350
H         54.12036        58.67266         2.05165
O         31.62557        61.28374        -0.41165
H         30.99475        60.74626        -0.93654
O         44.93497        61.75242        -0.40494
H         44.95992        60.92790        -0.93396
O         53.10299        51.64212        -1.86613
H         53.10206        52.48805        -2.37141
O         49.39864        51.86449         2.82843
H         49.17894        52.72215         3.26642
O         51.25955        61.23921         1.18133
H         50.36151        61.42428         1.54866
O         54.10175        46.13813         2.16411
H         54.91277        46.62050         2.42843
O         33.20090        54.79330        -2.19335
H         33.29915        55.77653        -2.28502
O         35.36430        66.23847         2.96769
H         35.33294        65.44161         3.53931
O         26.39297        72.63039         0.79958
H         25.58349        73.18185         0.74715
O         59.38002        67.51744         1.63044
H         59.96680        67.05559         2.26521
O         39.94420        49.76543         2.57817
H         39.75525        50.65910         2.93774
O         48.10606        54.32845         3.10835
H         47.27343        54.20236         3.61415
O         54.22773        54.64791         1.53918
H         53.42166        54.57279         2.09535
O         61.59612        58.99302        -1.69316
H         60.95890        59.46015        -2.27186
O         36.50157        68.37920        -1.88168
H         37.25532        67.75943        -1.98699
O         39.98034        41.00952         1.41034
H         39.98190        41.84924         1.91882
O         49.66780        60.64250        -2.10002
H         50.39009        61.08416        -2.61090
O         48.48573        50.81998        -0.57380
H         48.60406        49.95835        -1.04631
O         50.24658        71.29207         1.92252
H         49.37736        70.94494         2.25509
O         27.25072        67.32105         2.57962
H         27.56396        68.21132         2.87599
O         55.03419        57.19765         1.73897
H         54.88522        56.27360         2.06615
O         26.80615        60.76702         0.27263
H         27.09697        60.92624        -0.64811
O         34.38737        57.03718        -1.50284
H         35.19365        56.54949        -1.81878
O         40.79059        38.26608        -3.09465
H         41.41842        38.81191        -3.61109
O         49.72764        58.06696        -1.72722
H         49.58306        58.93577        -2.18670
O         42.67198        45.58260         2.39025
H         43.51283        45.14303         2.67400
O         54.75116        58.41796        -1.73427
H         55.40376        57.75917        -2.06389
O         52.36168        60.87035        -2.31444
H         52.81389        60.00163        -2.39564
O         30.27569        60.96267         3.02311
H         31.01536        61.44183         3.47031
O         35.81286        54.79336        -1.74662
H         35.03749        54.43274        -2.25259
O         51.56919        47.56601         2.52730
H         52.39087        47.04085         2.68881
O         48.75219        62.61390         2.10970
H         48.36203        63.28600         2.75460
O         56.08927        67.55924        -2.27471
H         55.32034        68.06796        -2.61385
O         43.97783        46.37880        -0.98191
H         43.24916        46.98218        -1.28990
O         40.81339        70.96201        -2.21405
H         40.24323        70.29932        -2.65855
O         48.84804        48.06398        -1.07802
H         48.07855        47.56259        -1.42694
O         44.41195        65.37686         2.89690
H         45.35259        65.04975         3.03384
O         41.77465        48.00356        -1.23376
H         40.96068        47.66909        -1.67098
O         58.75291        56.20404         1.71070
H         57.90688        55.81189         2.01627
O         56.32098        55.45790        -2.21677
H         55.91430        54.72538        -2.74084
O         32.80800        58.12895         2.61321
H         32.50800        58.91962         3.11220
O         59.09455        67.45089        -2.01948
H         58.27887        67.55883        -2.55883
O         40.92926        72.19841         1.23678
H         41.71489        72.50116         1.75710
O         51.37162        68.00198        -2.61616
H         50.80246        67.29873        -3.01087
O         50.87005        54.68879        -1.57919
H         50.22011        55.38997        -1.80667
O         45.40246        62.43454         3.12898
H         46.03933        63.11141         3.50420
O         58.63567        63.49558         1.94717
H         58.45082        62.57122         2.22135
O         53.46630        44.01348        -1.17500
H         52.95185        44.39485        -1.91596
H         23.28928        74.69223        -3.01626
H         25.59981        74.78843        -2.48378
H         28.05992        74.85408        -2.13061
H         30.45151        74.90724        -1.80609
H         32.90433        74.91430        -1.68350
H         35.35527        74.90374        -1.63325
H         37.79902        74.91071        -1.61865
H         40.24036        74.97070        -1.34027
H         42.79376        74.96407        -1.23578
H         45.14499        75.07775        -0.82021
H         47.59270        75.25409        -0.21891
H         50.06372        75.32515         0.22624
H         52.66221        75.37761         0.10242
H         55.08967        75.38576        -0.29739
H         57.53432        75.37914        -0.32945
H         60.03952        75.35307        -0.39933
H         62.49704        75.33032        -0.33963
H         64.95383        75.30696        -0.31871
H         67.42405        75.28266        -0.28021
H         22.55085        68.92416        -2.62726
H         21.27245        70.88273        -3.00905
H         21.27173        73.30766        -3.52989
H         24.89149        64.96828        -0.54743
H         24.02529        66.72883        -1.72522
H         27.42227        61.10242         2.20372
H         25.89824        62.97229         0.24748
H         29.52795        56.66374         0.14665
H         28.28688        58.85091         0.19063
H         32.07685        52.48826        -0.72391
H         30.79084        54.68674        -0.55478
H         34.44732        48.14152        -0.44412
H         33.25002        50.36129        -0.48448
H         36.87020        43.87630        -0.63787
H         35.67469        46.02524        -0.56627
H         39.25486        39.56547        -0.99340
H         38.02276        41.72046        -0.63903
H         41.72060        35.58968        -2.54694
H         40.60178        37.44759        -1.21900
H         45.11550        32.31419        -3.46056
H         42.95745        33.51942        -3.14466
H         47.27997        33.45558        -3.00717
H         48.53204        35.48486        -2.32636
H         49.77045        37.50748        -1.70316
H         51.02278        39.55314        -1.14369
H         52.28204        41.61930        -0.61764
H         53.29423        43.67689         0.84467
H         54.76812        45.83504         0.19064
H         56.01488        47.95475         0.00162
H         57.19566        50.13416        -0.41914
H         58.36534        52.25281        -0.49478
H         59.56770        54.31137        -0.10842
H         60.83172        56.60066        -0.32835
H         61.99612        58.73487         0.30677
H         63.30838        60.79158         0.04281
H         64.55338        62.98947         0.33821
H         65.76955        65.10389         0.21946
H         67.07757        67.33122         0.30865
H         68.26788        69.41067         0.14751
H         69.52859        71.52142        -0.04499
H         69.54227        73.99432        -0.21701
