         349
 CSIRO Nanostructure Databank - Neutral Graphene Oxide Data Set
C          1.44350         3.69819        -2.25314
C          0.29416         4.37616        -1.89432
C          1.16463         6.65921        -1.32586
C          0.13502         5.74662        -1.50012
C          1.08226         7.97041        -0.67049
C         -0.11853         8.70642        -0.63163
C          1.06051        10.66160         0.22811
C         -0.12372        10.02974        -0.21357
C          1.08825        12.09437         0.52415
C          0.00620        12.94394         0.03061
C          0.93141        14.86391         1.27417
C         -0.04089        14.26766         0.28726
C          0.98785        16.37450         1.26368
C         -0.13459        17.11984         1.50177
C          1.09657        19.24796         1.44756
C         -0.09152        18.54961         1.54249
C          1.17547        20.75251         1.67229
C         -0.06396        21.52530         1.30991
C          1.24214        23.49404         0.62063
C         -0.01010        22.81779         0.92636
C          1.30381        24.87283         0.34808
C          0.16224        25.76304         0.50583
C          1.66920        27.74036         0.40885
C          0.30186        27.10755         0.49000
C          1.66624        29.16413        -0.08534
C          3.99216         3.97121        -2.42268
C          2.67763         4.36127        -2.57168
C          3.65667         6.77179        -1.29164
C          2.46842         6.36805        -1.85557
C          3.56119         7.72018        -0.10318
C          2.27325         8.55737        -0.17341
C          3.42840        10.46242         0.99854
C          2.24636         9.88048         0.31394
C          3.41398        11.91692         1.40609
C          2.20911        12.70632         1.07655
C          3.46339        14.78931         1.43580
C          2.27204        14.14810         1.21234
C          3.55803        16.23912         1.19074
C          2.27013        17.06865         1.08267
C          3.56610        19.18832         1.37475
C          2.32817        18.52501         1.31946
C          3.60531        20.60235         1.15126
C          2.42371        21.35401         1.06014
C          3.64085        23.27248         0.04083
C          2.44086        22.70332         0.59598
C          3.63001        24.59071        -0.46245
C          2.52013        25.45220        -0.17160
C          3.68330        27.45137        -1.13180
C          2.60921        26.84519        -0.36185
C          3.88224        28.91434        -1.10019
C          2.72982        29.71206        -0.70925
C          6.37468         4.54468        -2.68746
C          5.06732         4.94426        -2.35295
C          6.07882         7.05509        -1.52855
C          4.91451         6.25361        -1.77453
C          5.78440         8.36433        -0.96042
C          4.75992         8.63864        -0.11456
C          6.00401        10.51646         1.29631
C          4.76224         9.79213         0.82975
C          5.88700        11.93246         1.75221
C          4.70808        12.60828         1.67075
C          5.99857        14.76917         1.78051
C          4.66331        14.07945         2.03594
C          6.01932        16.21434         1.57349
C          4.82444        16.93069         1.43811
C          6.14993        19.08522         1.37800
C          4.81723        18.40328         1.52886
C          6.19310        20.54892         1.08803
C          4.88688        21.31349         0.95426
C          6.10616        23.08259        -0.27099
C          4.88901        22.55721         0.16463
C          6.12029        24.33376        -1.06393
C          4.81590        25.10932        -1.16199
C          6.19828        27.22841        -1.59373
C          4.90156        26.56607        -1.50813
C          6.25709        28.64821        -1.73942
C          5.06992        29.45309        -1.52127
C          8.79672         4.85933        -2.81535
C          7.51656         5.32503        -2.40436
C          8.67972         7.23057        -1.25705
C          7.39167         6.60080        -1.74907
C          8.79034         8.53358        -0.49441
C          7.62568         9.39676        -0.25897
C          8.53361        10.50208         1.69791
C          7.37440        10.07123         0.89351
C          8.42609        11.89730         2.29510
C          7.08677        12.63745         2.39431
C          8.46130        14.84196         2.25244
C          7.16657        14.09059         1.97544
C          8.50591        16.18799         1.55775
C          7.28901        16.86035         1.39088
C          8.57470        18.94552         0.70472
C          7.25143        18.23259         0.77495
C          8.59167        20.27012         0.37928
C          7.38901        21.08568         0.43421
C          8.60412        22.95111        -0.58958
C          7.33903        22.37070        -0.08456
C          8.63038        24.33886        -1.13384
C          7.38053        25.08601        -1.23586
C          8.68616        27.13171        -1.66228
C          7.41104        26.46752        -1.47469
C          8.71384        28.53787        -1.99148
C          7.49325        29.27136        -1.96603
C         11.21931         4.92058        -2.70957
C          9.98787         5.34884        -2.24433
C         11.13942         6.91476        -0.57262
C          9.83433         6.22977        -1.00740
C         11.12534         8.02954         0.20862
C          9.80265         8.58848         0.64258
C         11.02771        10.54701         1.69225
C          9.86482         9.96192         1.28833
C         10.94627        11.84058         2.52867
C          9.69137        12.65125         2.28972
C         10.95675        14.72633         1.86443
C          9.72519        14.01454         2.06572
C         10.95890        16.08091         1.50141
C          9.75259        16.78584         1.24029
C         11.07912        18.88671         0.62480
C          9.79718        18.08723         0.45561
C         11.11336        20.22088         0.32610
C          9.85880        20.87406        -0.20076
C         11.13349        23.05042        -0.34669
C          9.84424        22.38577         0.06241
C         11.10654        24.37468        -0.82299
C          9.91079        25.05525        -1.13175
C         11.15274        27.02818        -1.94824
C          9.90185        26.42742        -1.51955
C         11.16239        28.43284        -2.36152
C          9.93735        29.16581        -2.27998
C         13.74404         4.96244        -2.64289
C         12.45754         5.19165        -1.98626
C         13.69549         6.90923        -0.54643
C         12.42592         6.22686        -0.85619
C         13.67168         7.91829         0.52471
C         12.34008         8.54124         0.89358
C         13.50660        10.48603         1.93326
C         12.33412         9.89744         1.50444
C         13.42771        11.85385         2.51067
C         12.19645        12.61521         2.33092
C         13.46358        14.79866         2.26249
C         12.26974        13.98596         1.75094
C         13.45230        16.16138         2.01505
C         12.28449        16.74092         1.30131
C         13.54839        19.00165         1.18910
C         12.34089        18.18473         0.91561
C         13.55921        20.36402         0.82500
C         12.33562        21.00763         0.37789
C         13.59735        23.19062         0.14539
C         12.32638        22.36073        -0.00778
C         13.61245        24.35364        -0.79076
C         12.38421        25.19924        -0.84980
C         13.52975        26.76245        -2.58857
C         12.31112        26.27471        -1.91662
C         13.54166        28.21495        -3.12022
C         12.37009        29.03896        -2.65901
C         16.13265         5.28058        -2.94045
C         14.90374         5.56861        -2.22893
C         16.09987         7.33775        -0.89991
C         14.89558         6.57979        -1.16944
C         16.12181         8.41246        -0.00174
C         14.94302         8.63352         0.87030
C         16.09635        10.75508         1.77986
C         14.86501         9.90610         1.68797
C         15.96634        11.98072         2.43833
C         14.67265        12.62919         2.72890
C         15.87285        14.80460         2.81787
C         14.66255        14.11878         2.67378
C         15.89297        16.27091         2.73814
C         14.60775        17.02214         2.31496
C         15.92765        19.11756         1.79083
C         14.71573        18.39973         1.73075
C         16.01555        20.46094         1.26887
C         14.80772        21.07074         0.79914
C         16.05046        22.83099        -0.34714
C         14.84743        22.34803         0.15274
C         16.06450        23.96784        -1.29818
C         14.71266        24.51932        -1.78631
C         16.03092        26.80747        -2.17662
C         14.79255        25.97664        -2.34980
C         16.05032        28.19977        -2.72029
C         14.89336        28.87177        -2.98744
C         18.50693         5.68814        -3.43423
C         17.30133         5.92587        -2.66888
C         18.28231         8.06242        -1.88348
C         17.41046         6.88483        -1.50716
C         18.24862         9.26880        -0.97089
C         17.24279         9.30948         0.12275
C         18.55310        11.14792         1.11865
C         17.31291        10.34176         1.08586
C         18.88597        11.98619         2.20286
C         17.06700        12.70770         2.97311
C         18.39803        14.82956         3.28949
C         17.11536        14.09887         3.04368
C         18.40778        16.31795         2.92985
C         17.15716        16.92750         2.46813
C         18.41170        18.67669         1.55562
C         17.14408        18.43350         2.38542
C         18.47979        21.02128         1.83254
C         17.24011        21.23536         1.10049
C         18.53557        22.93452        -0.18452
C         17.29044        22.27663         0.11762
C         18.57342        24.21256        -0.77177
C         17.35512        24.71568        -1.45001
C         18.62870        26.79373        -2.20388
C         17.31342        26.17629        -1.76748
C         18.52095        28.29215        -2.38331
C         17.32379        28.88628        -2.71204
C         19.57152         6.54297        -3.38488
C         20.50107         8.74132        -2.69723
C         19.50763         7.78219        -2.65072
C         20.45517         9.90137        -1.87685
C         19.43557        10.13762        -0.97018
C         20.52830        12.14022         0.04802
C         19.51241        11.15817         0.05848
C         20.63743        13.11933         1.03938
C         19.81389        13.03949         2.16801
C         20.94682        14.97733         3.30278
C         19.75029        14.05573         3.30981
C         20.91075        16.31352         3.10313
C         19.70505        17.01884         2.73093
C         20.86868        19.13768         2.04660
C         19.71384        18.31070         2.20650
C         20.87386        20.43934         1.55970
C         19.73682        21.22371         1.22328
C         20.96715        23.20116         0.33859
C         19.84212        22.22536         0.09263
C         20.91519        24.48271        -0.08424
C         19.75195        25.02168        -0.76055
C         20.88256        27.18709        -1.21801
C         19.78333        26.33862        -1.32603
C         20.86459        28.50923        -1.73381
C         19.72251        29.06130        -2.27257
O         13.99469        12.01347         3.89143
O         18.12683        11.89443         3.37570
O          3.14157        10.84249         2.37884
O          5.27613        24.25891        -2.26610
O         15.17513         8.60394         2.30836
O          2.99563        16.63143        -0.12639
O         17.55941         9.24709        -2.29662
O          8.67028        23.08398        -2.03826
O         16.50674        26.86995        -0.76650
O          5.36221         9.48816         2.14435
O         18.30743        15.79790         4.35757
O          8.39011        10.68787         3.14558
O         14.17096        25.95313        -3.66028
O          5.68631        18.78577         2.69940
O         15.03460        16.98765         3.72352
O         12.60019        17.09063        -0.09835
O         16.92294        23.77292        -2.49388
O         12.40207         4.79035        -0.55429
O          5.70712        21.38659         2.17798
O         18.32735        18.77733         0.34078
O         12.94430         7.48839         1.72190
O          9.22545         8.44202        -1.88044
O          3.89330        26.92925        -2.49015
O          6.67166         9.40258        -1.27200
O          2.50439         5.67523        -3.07167
O          9.44645         5.36373         0.07988
H         10.20961         4.77325         0.26616
O          1.32511        20.89517         3.12848
H          1.55155        21.83087         3.31397
O          2.17272        27.81336         1.79590
H          2.07686        26.91818         2.18562
O         13.51333        23.70929         1.52918
H         13.07020        24.59366         1.47648
O          0.41361        14.52170         2.60472
H          0.45761        13.54590         2.69987
O          6.79871        12.67301         3.83563
H          6.88459        11.74470         4.15658
O          8.41967        15.12894         3.68837
H          8.07513        14.32439         4.14018
O         12.34600        25.95233         0.44544
H         11.48147        26.41653         0.49048
O         14.34843        23.64375        -2.88883
H         15.14830        23.54812        -3.45382
O          4.45253        14.16937         3.47471
H          5.19589        13.67552         3.90366
O         18.88935        26.25134        -3.53617
H         18.93857        25.27427        -3.46201
O         10.91302        11.38602         3.91222
H         10.06713        10.88924         4.02610
O         17.22369        18.83125         3.79452
H         16.53467        18.29214         4.25559
O         20.19043        21.47481        -1.11682
H         20.14084        22.09532        -1.87390
O          9.68482        22.59366         1.48858
H         10.51662        22.32376         1.93280
O          9.85025        20.60023        -1.62636
H          9.38937        21.33648        -2.09600
O         18.50242        20.80646         3.15604
H         17.62575        20.54592         3.52523
O         12.53358        13.80535         0.29870
H         12.53084        14.69853        -0.11499
O         19.80345        13.34287         4.56237
H         19.53969        13.97401         5.26537
O          9.69334        17.71630        -0.96529
H          9.88959        18.53587        -1.48245
O         18.14004         6.18441        -0.45222
H         17.59894         5.41918        -0.16462
O          3.52734         6.93754         1.11438
H          3.77605         7.52781         1.85810
O         13.31428        28.13968        -4.56703
H         13.71924        27.29178        -4.86844
O          6.86713        18.04473        -0.62889
H          7.67194        17.70418        -1.09239
O          9.25156         7.70677         1.65797
H          9.93304         7.56569         2.34866
H          1.41722         2.59791        -2.26628
H         -0.60390         3.75534        -1.74526
H         -0.86417         6.01833        -1.12520
H         -1.05003         8.24346        -0.98616
H         -1.07150        10.58409        -0.22728
H         -0.74599        12.49820        -0.63521
H         -0.84197        14.89412        -0.13134
H         -1.09959        16.61736         1.65713
H         -1.03889        19.08447         1.69409
H         -1.04478        21.06667         1.50205
H         -0.95048        23.36623         0.77133
H         -0.83633        25.32708         0.65330
H         -0.57175        27.75859         0.64396
H          0.80618        29.79299         0.19020
H          4.24318         2.91378        -2.25108
H          2.73889        30.78490        -0.95563
H          6.52455         3.56037        -3.15542
H          5.18230        30.54734        -1.56295
H          8.85214         4.03569        -3.54300
H          7.52654        30.36135        -2.11214
H         11.27264         4.32955        -3.63661
H          9.94547        30.23747        -2.52813
H         13.76184         4.31505        -3.53285
H         12.40510        30.12388        -2.84127
H         16.08885         4.54556        -3.75901
H         14.95957        29.92235        -3.31260
H         18.53340         4.81355        -4.10136
H         17.31253        29.96555        -2.93234
H         20.47067         6.33875        -3.98477
H         21.39233         8.57071        -3.31841
H         21.32492        10.57201        -1.90396
H         21.22814        12.17641        -0.79708
H         21.38395        13.92082         0.94717
H         21.90570        14.49703         3.54798
H         21.85195        16.88062         3.14408
H         21.84911        18.69521         2.28009
H         21.86084        20.84078         1.27564
H         21.88733        22.82485         0.80826
H         21.78935        25.12867         0.07456
H         21.78592        26.86539        -0.68222
H         21.76912        29.12464        -1.62882
H         19.70247        30.12239        -2.56135
