         240
 CSIRO Nanostructure Databank - Neutral Graphene Oxide Data Set
C        -11.13238         0.48162         0.54690
C         -9.82217         1.16477         0.78265
C         -8.65530         0.44087         0.12534
C         -7.44923         1.15687         0.00329
C         -6.29012         0.51706        -0.48345
C         -4.94807         1.21708        -0.29216
C         -3.88954         0.80925        -1.33208
C         -2.54949         1.42440        -0.98551
C         -1.32508         0.72387        -1.01135
C         -0.12151         1.41141        -0.70395
C          1.24364         0.79284        -0.91311
C          2.23987         1.24540         0.14149
C          3.26767         0.41867         0.48878
C          5.15659         1.48883         0.91376
C          6.39711         0.65308         1.04712
C          7.59750         1.34008         0.42894
C          8.73215         0.63526         0.07575
C         10.08461         1.31987         0.09933
C         11.09980         0.61797        -0.75974
C         -9.86252         2.61334         0.39288
C         -8.69467         3.33991         0.32726
C         -7.39085         2.58801         0.53540
C         -6.20288         3.38631         0.05150
C         -5.05674         2.73186        -0.30880
C         -3.87667         3.50718        -0.73970
C         -2.56043         2.81495        -0.80539
C         -1.35432         3.49070        -0.53853
C         -0.15303         2.77434        -0.37987
C          0.94249         3.44227         0.44060
C          2.25534         2.65841         0.54373
C          3.63446         3.38707         0.44542
C          5.00937         2.75134         0.39321
C          6.28163         3.58364         0.39276
C          7.62992         2.80086         0.55288
C          8.88509         3.53471         0.23459
C         10.01980         2.80954        -0.08451
C         -8.69975         4.75346         0.19711
C         -7.51719         5.53326         0.31904
C         -6.24071         4.83243         0.24741
C         -5.05822         5.56288         0.24780
C         -3.88489         4.99787        -0.40905
C         -2.58657         5.73850        -0.36564
C         -1.31222         4.95881        -0.47798
C         -0.05159         5.63977        -0.11870
C          1.08248         4.93459         0.16442
C          2.38456         5.54690        -0.03854
C          3.45613         4.69884        -0.17157
C          5.37217         5.75944        -0.50965
C          6.43767         4.99126         0.01956
C          7.66751         5.70643         0.30765
C          8.87939         4.95271         0.34085
C         -7.53948         6.93682         0.30271
C         -6.36235         7.70764         0.69728
C         -5.01733         6.93695         0.75535
C         -3.73407         7.72847         0.77213
C         -2.43576         6.98339         0.50338
C         -1.27951         7.87127         0.03185
C         -0.01630         7.11679        -0.23312
C          1.28609         7.76318         0.10776
C          2.51633         7.00949        -0.34274
C          3.84605         7.77918        -0.34896
C          5.17963         7.11294        -0.27084
C          6.44860         7.91701        -0.10968
C          7.63830         7.10359         0.33544
C         -6.24257         9.16513         0.45668
C         -5.07669         9.85225         0.45183
C         -3.74847         9.23945         0.69880
C         -2.49030         9.98032         0.43791
C         -1.24691         9.33005         0.35615
C          0.00493         9.97695         0.33822
C          1.28132         9.23627         0.34590
C          2.61005         9.88499         0.33011
C          3.78049         9.19848         0.14711
C          5.02141         9.82956         0.59362
C          6.22475         9.21925         0.60928
C        -11.15133        -0.85858         0.42820
C         -9.93390        -1.64436         0.31293
C         -8.71089        -0.95868        -0.13824
C         -7.54129        -1.59466        -0.67580
C         -6.35605        -0.83494        -0.90627
C         -5.13728        -1.48778        -1.51614
C         -3.83763        -0.70472        -1.58432
C         -2.51370        -1.40072        -1.46348
C         -1.34546        -0.72621        -1.20238
C         -0.06994        -1.45512        -0.95191
C          1.22418        -0.71895        -0.80530
C          2.55723        -1.41273        -1.07938
C          3.65396        -0.81816        -0.15930
C          4.89520        -1.39564        -0.07184
C          6.16759        -0.90828         0.69426
C          7.44319        -1.49174         0.05843
C          8.67643        -0.78599        -0.08673
C          9.84807        -1.48869        -0.55218
C         11.00838        -0.70778        -0.97375
C         -9.99136        -2.93852         0.84570
C         -9.07204        -3.95178         0.50591
C         -7.45921        -3.04467        -0.89323
C         -6.31100        -3.73779        -1.10144
C         -5.09218        -3.02859        -1.66540
C         -3.77753        -3.59242        -1.16769
C         -2.51189        -2.88882        -1.49277
C         -1.22483        -3.65558        -1.32613
C          0.02699        -2.90656        -1.13712
C          1.23152        -3.57694        -0.91042
C          2.48576        -2.90571        -0.86769
C          3.69770        -3.56521        -0.55102
C          4.98460        -2.75698        -0.78772
C          6.22731        -3.65134        -0.50215
C          7.45495        -2.85093        -0.21104
C          8.67152        -3.61348        -0.35019
C          9.86418        -2.87390        -0.63969
C         -8.60236        -4.99420         1.32512
C         -7.58386        -5.90132         0.98008
C         -6.26545        -5.26318        -1.22125
C         -4.91016        -5.70111        -0.71637
C         -3.74609        -4.85764        -0.67192
C         -2.50761        -5.48406        -0.16553
C         -1.23921        -4.99627        -0.69525
C         -0.08288        -5.67825        -0.38728
C          1.21319        -5.04936        -0.75146
C          2.48934        -5.70768        -0.30624
C          3.69460        -4.89443        -0.11978
C          4.82721        -5.53302         0.57641
C          6.12432        -4.78507         0.50240
C          7.45936        -5.59916         0.65343
C          8.59716        -4.99343        -0.15428
C         -7.20432        -6.29295        -0.41897
C         -6.27028        -7.61675        -0.48543
C         -4.91630        -6.98267        -0.29871
C         -3.89356        -7.53658         0.64259
C         -2.55557        -6.86017         0.45242
C         -1.33380        -7.66587         0.41240
C         -0.13091        -7.00970         0.16170
C          1.10478        -7.69029         0.58509
C          2.41447        -6.97847         0.47024
C          3.67517        -7.73585         0.64056
C          4.83503        -6.99518         0.84254
C          6.11581        -7.69905         1.31545
C          7.13682        -7.03958         0.40575
C         -6.36785        -8.83899         0.41470
C         -5.25286        -9.55679         0.74168
C         -3.88821        -9.03602         0.64270
C         -2.70188        -9.72893         0.72378
C         -1.39526        -9.08765         0.65601
C         -0.18262        -9.80251         0.75531
C          1.08155        -9.15590         0.75042
C          2.32708        -9.81535         0.87150
C          3.57263        -9.15095         0.84157
C          4.82909        -9.85908         0.99714
C          5.99955        -9.19810         1.14933
O          1.67480         1.23292        -2.21819
H          2.27287         0.52969        -2.58939
O         -4.17410         4.49751        -1.75982
O         -6.45091        -5.59932        -2.60922
H         -5.97271        -4.91157        -3.14115
O         -2.02870         6.44783         1.79377
H         -2.24661         7.13105         2.47003
O         -9.59242         1.08767         2.23249
H         -8.72510         1.53687         2.40550
O          0.37476         3.35950         1.78851
H          1.11448         3.50888         2.42023
O          5.05927        -2.44638        -2.16369
O         -7.19388         2.44284         1.99343
H         -7.18606         3.34816         2.37477
O          2.95942         3.13396         1.71815
O          1.31648         8.19138         1.49708
O         -4.47732         0.79368         1.01201
H         -5.10572         1.13795         1.68424
O         -6.41660        -8.15097        -1.80950
H         -6.34311        -7.39566        -2.44599
O         -4.33106         1.45278        -2.54536
H         -3.74195         1.18587        -3.28066
O          6.48423        -4.37777        -1.73387
H          6.06623        -3.78984        -2.43210
O          6.04244        -1.62058         1.94384
H          6.10554        -0.96210         2.67634
O          4.38667         5.01389        -1.15774
O          0.53603        -1.11994         0.39811
O          6.79158         8.32867        -1.50145
H          5.97969         8.71403        -1.89712
O         10.56171         1.13818         1.48718
H          9.88436         1.52597         2.08212
O          1.68410        -6.90510         1.73540
O         -5.13515        -3.33739        -3.09051
H         -4.71288        -2.57065        -3.55514
O         -1.84803        -3.51283        -2.66757
O          6.36671        -7.47989         2.70185
H          6.87194        -6.63466         2.79890
O         -0.77731         7.69975        -1.33354
O         -3.64245         8.50699         2.00318
O          4.09209         0.84181         1.54210
O          7.89166        -5.41893         2.03494
H          7.72363        -4.48597         2.28825
O          2.88332        -1.10922        -2.45156
H          3.77021        -1.57881        -2.62096
O         -8.60173        -3.85755        -0.80344
O         -1.92910         5.64036        -1.63990
O          6.94888         3.34862         1.71797
O         -7.00982        -6.50954         2.00754
H         -6.13582        -6.96432         1.81246
O         -4.64374        -0.94631        -2.79153
O         -4.41464        -7.15197         1.96946
H         -3.88379        -6.35780         2.23803
O          6.70162         0.69418         2.48107
H          6.70204         1.65090         2.72974
O         -5.79426         7.18654         1.95152
O          2.02127        -5.82493        -1.69958
O         -2.46210        -5.66430         1.31321
O          3.07785         7.49897        -1.58721
O          5.38168        -4.64813         1.69507
H         11.79959        -1.23740        -1.52626
H         11.97372         1.18622        -1.11105
H         10.96413         3.34531        -0.26669
H          9.83786         5.49037         0.29898
H          8.58336         7.64966         0.47567
H          7.10077         9.74744         1.01422
H          4.92130        10.83281         1.03770
H          2.66720        10.92874         0.68038
H          0.04514        11.07174         0.44498
H         -2.52584        11.07918         0.49570
H         -5.09511        10.92646         0.21081
H         -7.17208         9.70082         0.20659
H         -8.47817         7.46428         0.07713
H         -9.67019         5.26441         0.10993
H        -10.83522         3.12110         0.30817
H        -12.06350         1.06233         0.61697
H        -12.10524        -1.40726         0.40995
H        -10.80069        -3.16569         1.55711
H         -8.87549        -4.95309         2.38907
H         -8.13947        -6.44382        -1.00189
H         -7.35571        -9.30631         0.54982
H         -5.38418       -10.56231         1.17425
H         -2.72205       -10.82729         0.80555
H         -0.21730       -10.89482         0.88896
H          2.32946       -10.90734         1.01440
H          4.81146       -10.95977         1.00931
H          6.91708        -9.77250         1.34754
H          7.08674        -7.32787        -0.65930
H          9.52210        -5.58892        -0.21334
H         10.78908        -3.40218        -0.91386
