         232
 CSIRO Nanostructure Databank - Neutral Graphene Oxide Data Set
C        -11.06216         0.80005        -0.46705
C         -9.86494         1.57606        -0.68730
C         -8.63972         0.79578        -0.98089
C         -7.31340         1.55438        -1.00247
C         -6.10964         0.79302        -0.68382
C         -4.93964         1.50365        -0.12659
C         -3.61939         0.82328        -0.23482
C         -2.38735         1.59089         0.10922
C         -1.25920         0.84420         0.79903
C          0.04724         1.59169         0.67720
C          1.36855         0.88748         0.93046
C          2.46106         1.48632         0.09830
C          3.53016         0.56629        -0.45210
C          4.87481         1.33437        -0.75566
C          6.16214         0.73988        -0.19546
C          7.38411         1.41095        -0.61442
C          8.66941         0.71370        -0.63764
C          9.90520         1.47064        -0.34058
C         11.09733         0.69997        -0.09381
C         -9.84116         2.95759        -0.61379
C         -8.63409         3.75433        -0.66117
C         -7.33795         3.05184        -0.83522
C         -6.12078         3.76657        -0.32706
C         -4.98287         2.95381         0.19325
C         -3.72362         3.67597         0.55363
C         -2.45495         3.01287         0.41301
C         -1.22012         3.71683         0.89163
C          0.04127         2.95487         0.54670
C          1.23873         3.65982         0.12834
C          2.41537         2.83241        -0.18485
C          3.64798         3.50567        -0.58754
C          4.83185         2.83182        -0.55898
C          6.14401         3.53034        -0.29103
C          7.36169         2.87423        -0.94911
C          8.63161         3.59438        -0.48546
C          9.85011         2.84938        -0.28649
C         -8.62909         5.11776        -0.41508
C         -7.42093         5.88955        -0.16860
C         -6.19526         5.19810         0.02698
C         -5.00953         5.89493         0.32555
C         -3.73945         5.18258         0.64220
C         -2.44253         5.85090         0.40802
C         -1.24169         5.17102         0.45844
C         -0.01787         5.81499         0.04013
C          1.18917         5.02678        -0.14043
C          2.29460         5.66397        -0.96513
C          3.62677         4.95289        -0.90758
C          4.90100         5.74359        -0.81945
C          6.14254         5.02172        -0.50494
C          7.33587         5.70671        -0.37352
C          8.57437         4.94896        -0.25244
C         -7.42358         7.29775        -0.02180
C         -6.23374         8.01081         0.23213
C         -5.02258         7.29452         0.39236
C         -3.73855         7.99334         0.62856
C         -2.51114         7.29846         0.11217
C         -1.24421         8.05573        -0.17506
C         -0.02397         7.18801        -0.30643
C          1.15441         7.78409        -0.81889
C          2.41382         7.17318        -0.79305
C          3.64239         7.90525        -0.70878
C          4.85868         7.21081        -0.63488
C          6.11892         7.86094        -0.37036
C          7.30660         7.14553        -0.30716
C         -6.17598         9.46811         0.28350
C         -5.02161        10.15941         0.46656
C         -3.72342         9.48589         0.67740
C         -2.42313        10.16356         0.51017
C         -1.21765         9.51390         0.25606
C         -0.00596        10.22890         0.52385
C          1.22935         9.87610        -0.08526
C          2.54934        10.03548         0.25667
C          3.64024         9.45441        -0.65048
C          4.97683        10.01954        -0.23531
C          6.10884         9.29938        -0.15122
C        -11.04802        -0.56729        -0.41793
C         -9.82977        -1.34757        -0.51678
C         -8.59286        -0.64551        -0.71680
C         -7.36644        -1.33314        -0.70171
C         -6.11415        -0.60437        -0.62631
C         -4.89890        -1.34422        -0.35566
C         -3.63145        -0.65551        -0.11943
C         -2.46203        -1.30719         0.15539
C         -1.14215        -0.56605         0.20268
C         -0.04652        -1.34403         0.89203
C          1.29674        -0.64637         0.99244
C          2.52460        -1.45726         0.77904
C          3.68200        -0.78701         0.27680
C          4.88812        -1.48761         0.18528
C          6.16624        -0.76670         0.04940
C          7.38652        -1.51059        -0.39830
C          8.68913        -0.78190        -0.55637
C          9.92958        -1.48644        -0.15258
C         11.10973        -0.67243        -0.01133
C         -9.82342        -2.73711        -0.42122
C         -8.60755        -3.48938        -0.48281
C         -7.35240        -2.76682        -0.60183
C         -6.12802        -3.45742        -0.60105
C         -4.90975        -2.74097        -0.43459
C         -3.59615        -3.44435        -0.40982
C         -2.49714        -2.79241         0.39791
C         -1.15703        -3.50552         0.35888
C         -0.05393        -2.81245         0.77532
C          1.13162        -3.48525         1.41369
C          2.49763        -2.89579         0.94257
C          3.66755        -3.64008         0.74548
C          4.94120        -2.92084         0.52365
C          6.23632        -3.68453         0.31037
C          7.43226        -2.98628        -0.25407
C          8.74238        -3.67305        -0.07459
C          9.92895        -2.86307         0.01408
C         -8.60587        -4.87969        -0.31139
C         -7.39832        -5.64743        -0.27891
C         -6.13206        -4.94045        -0.63801
C         -4.82639        -5.68300        -0.60080
C         -3.52856        -4.92571        -0.56806
C         -2.29373        -5.64404        -0.15966
C         -1.15070        -4.96526         0.19832
C          0.05007        -5.69817         0.61458
C          0.97890        -4.96694         1.29354
C          2.83467        -6.08356         1.08389
C          3.74694        -5.11714         0.50549
C          5.00559        -5.85406        -0.03072
C          6.28293        -5.14683         0.06998
C          7.49274        -5.80292         0.01903
C          8.72441        -5.04802         0.08985
C         -7.38574        -7.00520        -0.02943
C         -6.13421        -7.73207         0.27896
C         -4.80896        -7.02874         0.06168
C         -3.57461        -7.82604        -0.02000
C         -2.30726        -7.12485        -0.28558
C         -1.02441        -7.90067        -0.12755
C          0.29297        -7.14749         0.09118
C          1.33875        -8.03533         0.87750
C          2.69950        -7.38466         0.69249
C          3.83742        -8.03380         0.09578
C          5.01077        -7.32266        -0.07789
C          6.27225        -7.96179        -0.60517
C          7.53459        -7.32875         0.01362
C         -6.06860        -9.20198         0.32590
C         -4.88108        -9.86246         0.35463
C         -3.59687        -9.19247         0.21762
C         -2.36316        -9.94266         0.28204
C         -1.12174        -9.34496         0.20719
C          0.11908       -10.08916         0.22625
C          1.33601        -9.45849         0.35033
C          2.58165       -10.13926         0.08873
C          3.78667        -9.48086        -0.05566
C          5.05385       -10.14833        -0.31271
C          6.21091        -9.46804        -0.48947
O         -2.20057         7.74009        -1.25348
O         -5.54285        -5.57064        -1.85631
O          7.22796         3.02306        -2.39594
H          7.98968         2.57037        -2.81787
O          7.14948        -2.38127        -1.55734
O          4.37334         5.25141        -2.14228
O          1.07617        -3.21940         2.84542
H          1.68228        -3.86384         3.27241
O         -5.30242         1.97694         1.24365
O          0.88648        -6.93404        -1.20275
H          0.14461        -6.85568        -1.84923
O          6.36415         3.32519         1.14462
H          5.56341         3.61325         1.63086
O          3.99607        -5.29544        -0.93552
O         -1.64254         0.75273         2.18918
H         -1.55470         1.66119         2.57087
O         -2.93757        -2.96666         1.78758
H         -2.31924        -2.47270         2.36915
O         -5.41428        -7.05084         1.39704
O         -3.26320        -4.02059        -1.70112
O         -1.56914        -7.63017        -1.47024
O          5.09215         1.20693        -2.20020
H          5.74335         1.90263        -2.48354
O          3.43148         9.92905        -2.00409
H          2.51382         9.67378        -2.25954
O          6.30749         0.18052         1.16642
O         -3.84581         4.40618         1.89013
O          0.46250        -0.92822         2.18073
O          1.02411         9.09948        -1.26222
O          5.91359        -3.25080         1.66749
O          2.94136         0.13119        -1.70765
H          3.52502         0.45290        -2.43815
O          6.35991        -7.64540        -2.02627
H          5.49389        -7.84854        -2.43837
O          1.95608        -5.61559         2.07302
O         -2.72822         1.28182        -1.32400
O         -7.97830         1.15950        -2.24085
O         -3.65402         8.63731         1.93253
O          1.73473         1.28479         2.29803
H          1.14076         0.77597         2.89821
O          7.64557        -7.78297         1.36648
H          8.39209        -7.31562         1.79335
O         -0.67506        -0.43733        -1.16233
H         -1.35503         0.07790        -1.66475
O          1.81138         5.49745        -2.33831
H          2.60427         5.57122        -2.91941
O         -6.37573         3.64050        -1.77574
O          8.80317        -0.13919        -1.87623
O         -1.27620         3.68199         2.37104
H         -2.16384         4.05667         2.61266
O          0.95000        -8.11504         2.25931
H          1.18844        -7.25991         2.68524
H         12.06086        -1.18341         0.20150
H         12.03913         1.24998         0.05309
H         10.75590         3.41352        -0.01201
H          9.49301         5.49166         0.02111
H          8.25031         7.68594        -0.14157
H          7.06156         9.78630         0.10688
H          5.01063        11.10701        -0.06978
H          2.83192        10.58927         1.16312
H         -0.05974        11.11124         1.17901
H         -2.38916        11.23985         0.74356
H         -5.03189        11.25916         0.42259
H         -7.11458        10.01988         0.12290
H         -8.36644         7.85103        -0.14747
H         -9.59331         5.64329        -0.33146
H        -10.78669         3.48685        -0.41556
H        -12.01168         1.33924        -0.33141
H        -11.99120        -1.11044        -0.25746
H        -10.77364        -3.27682        -0.29163
H         -9.56057        -5.39575        -0.12694
H         -8.33879        -7.54535         0.08285
H         -7.01316        -9.76650         0.31978
H         -4.87558       -10.96098         0.41846
H         -2.42703       -11.02528         0.46922
H          0.07683       -11.17010         0.01701
H          2.54225       -11.22810        -0.07617
H          5.06070       -11.24963        -0.31942
H          7.14418       -10.02431        -0.66680
H          8.43466        -7.67197        -0.57271
H          9.67256        -5.59460         0.21131
H         10.87839        -3.36937         0.24913
