         204
 CSIRO Nanostructure Databank - Neutral Graphene Oxide Data Set
C        -11.10991         0.69978        -0.24254
C         -9.89601         1.44461        -0.32667
C         -8.64983         0.71258        -0.34683
C         -7.42065         1.40183        -0.43173
C         -6.20072         0.68033        -0.41751
C         -4.93375         1.37840        -0.30584
C         -3.71484         0.72160        -0.30752
C         -2.44931         1.41642        -0.15903
C         -1.22656         0.70732        -0.26668
C          0.01147         1.41898        -0.25088
C          1.25210         0.72645        -0.37304
C          2.46775         1.41932        -0.34799
C          3.72877         0.73249        -0.57509
C          4.91813         1.44005        -0.56517
C          6.16232         0.81573        -1.15377
C          7.45930         1.43106        -0.67043
C          8.64395         0.72404        -0.51027
C          9.84227         1.43003        -0.05113
C         10.97382         0.64461         0.38324
C         -9.88499         2.85919        -0.30903
C         -8.69079         3.60077        -0.36308
C         -7.41230         2.88379        -0.73921
C         -6.19127         3.59185        -0.21649
C         -4.99867         2.80380         0.06635
C         -3.67789         3.55268         0.24489
C         -2.43073         2.82739        -0.01247
C         -1.22170         3.55101        -0.05381
C          0.01034         2.84123        -0.14694
C          1.24304         3.55310        -0.10571
C          2.47238         2.84223        -0.16957
C          3.70339         3.55072        -0.05163
C          4.95905         2.85222        -0.24758
C          6.16793         3.55312        -0.24258
C          7.43937         2.89855        -0.61750
C          8.74825         3.65000        -0.29776
C          9.87614         2.80486         0.07741
C         -8.64832         4.99741        -0.20824
C         -7.42647         5.71539        -0.14159
C         -6.17705         4.97063        -0.06781
C         -4.92994         5.69328         0.09745
C         -3.70053         5.01092         0.12080
C         -2.46045         5.70682         0.07601
C         -1.22978         4.98945         0.02746
C         -0.00109         5.69895         0.02721
C          1.23134         4.98014        -0.01785
C          2.46023         5.68433         0.06142
C          3.67336         4.95111         0.11253
C          4.90341         5.66556         0.45141
C          6.22489         4.91678         0.29070
C          7.47891         5.71325         0.27201
C          8.67649         5.06203         0.14350
C         -7.38800         7.12358        -0.03899
C         -6.17792         7.83408         0.06607
C         -4.92795         7.12587         0.10440
C         -3.70237         7.83508         0.15312
C         -2.45672         7.13472         0.12162
C         -1.22398         7.83989         0.15201
C          0.00817         7.13009         0.10137
C          1.25215         7.83276         0.12716
C          2.47067         7.12145         0.11562
C          3.73125         7.82064         0.17542
C          4.91394         7.13348         0.37722
C          6.17968         7.81864         0.55146
C          7.37803         7.13146         0.54197
C         -6.14518         9.26853         0.13087
C         -4.96261         9.95680         0.20978
C         -3.69516         9.27495         0.21340
C         -2.48149         9.96401         0.27415
C         -1.22551         9.28283         0.25025
C         -0.00683         9.96861         0.31642
C          1.25337         9.28899         0.23760
C          2.45361         9.98156         0.26250
C          3.75813         9.31045        -0.07240
C          4.97914         9.95818         0.53119
C          6.11214         9.26255         0.75682
C        -11.11770        -0.67853        -0.16629
C         -9.90187        -1.43013        -0.14448
C         -8.66866        -0.71137        -0.22541
C         -7.44232        -1.43257        -0.21993
C         -6.22373        -0.73332        -0.35469
C         -4.98052        -1.49849        -0.48773
C         -3.66717        -0.73427        -0.52406
C         -2.43814        -1.46349        -0.19376
C         -1.21357        -0.74469        -0.23332
C          0.00009        -1.44832        -0.24173
C          1.23204        -0.73737        -0.72719
C          2.52303        -1.44532        -0.43402
C          3.73826        -0.73423        -0.65126
C          4.93688        -1.43681        -0.82384
C          6.17903        -0.71967        -1.15527
C          7.49985        -1.47137        -1.08032
C          8.67935        -0.72490        -0.58464
C          9.75470        -1.43315        -0.03667
C         10.91845        -0.71514         0.42258
C         -9.88127        -2.84588        -0.05687
C         -8.67825        -3.56877         0.00325
C         -7.43504        -2.85925        -0.06585
C         -6.20062        -3.54552         0.10045
C         -4.96246        -2.90266        -0.05188
C         -3.71202        -3.57711         0.12919
C         -2.46212        -2.86178         0.00623
C         -1.22216        -3.55528         0.19919
C          0.02738        -2.84394         0.01961
C          1.27271        -3.52112         0.05913
C          2.51850        -2.85742        -0.22741
C          3.73290        -3.58870        -0.21992
C          5.04533        -2.84394        -0.28612
C          6.17675        -3.66377        -0.88644
C          7.56128        -3.01215        -1.10588
C          8.64095        -3.63193        -0.24668
C          9.72018        -2.86473         0.12802
C         -8.64925        -5.01605         0.06715
C         -7.48348        -5.71315         0.29964
C         -6.24099        -4.94649         0.55526
C         -4.94029        -5.66893         0.77581
C         -3.68639        -4.96621         0.42720
C         -2.46468        -5.67117         0.45467
C         -1.24237        -4.95322         0.40193
C          0.00699        -5.67084         0.68624
C          1.32025        -4.90827         0.51560
C          2.54876        -5.67502         0.34785
C          3.73508        -5.00908         0.00770
C          4.95913        -5.76752        -0.05376
C          6.17690        -5.12222        -0.56883
C          7.47030        -5.81049        -0.32966
C          8.61330        -5.05790        -0.09816
C         -7.37840        -7.14987         0.19599
C         -6.19455        -7.83675         0.33658
C         -4.94777        -7.19060         0.92028
C         -3.65842        -7.84453         0.47780
C         -2.45420        -7.12987         0.48410
C         -1.21029        -7.83449         0.40334
C          0.03327        -7.14420         0.53810
C          1.24448        -7.83309         0.53595
C          2.54521        -7.10647         0.82525
C          3.76792        -7.86810         0.39713
C          4.96645        -7.16927         0.12547
C          6.21370        -7.90617        -0.03136
C          7.42141        -7.22910        -0.16771
C         -6.12061        -9.26224         0.10988
C         -4.93555        -9.93667         0.12513
C         -3.65954        -9.25647         0.27344
C         -2.44937        -9.94354         0.15961
C         -1.20683        -9.25968         0.27514
C          0.03164        -9.94724         0.26672
C          1.25219        -9.26279         0.40320
C          2.50015        -9.96533         0.38974
C          3.72892        -9.28896         0.35047
C          4.97597       -10.00480         0.19490
C          6.16047        -9.34363         0.04589
O          5.49545        -2.66250         1.12102
H          4.75319        -2.25635         1.61852
O          1.10744        -0.77253        -2.20849
H          1.91468        -0.35151        -2.57586
O          2.63451        -7.01664         2.29975
H          1.91094        -6.39760         2.57458
O          6.91960        -1.09946        -2.38662
O         -5.65837        -5.06336         1.91638
O          8.00268        -3.37011        -2.43392
H          7.42886        -2.88336        -3.06732
O         -4.43029         3.05123         1.40479
O          5.57824         5.06899         1.61128
O          8.24437         3.51865        -1.67687
O          0.69644        -5.14156         1.87554
O         -4.28724        -1.22651        -1.76384
O          5.85363        -4.58368        -1.94599
O         -7.33086         2.97142        -2.21221
H         -8.13773         2.54541        -2.57251
O          6.06910         1.24355        -2.55000
H          6.65884         0.64120        -3.06232
O          3.90779         9.48434        -1.53584
H          3.11777         9.08161        -1.95557
O         -5.01594        -7.49323         2.34743
H         -5.48375        -6.73042         2.76514
H         11.77441        -1.29568         0.79601
H         11.87735         1.17501         0.71755
H         10.73693         3.27582         0.57664
H          9.62077         5.61541         0.26514
H          8.31652         7.69394         0.66476
H          7.01730         9.77449         1.11809
H          4.95672        11.04701         0.69012
H          2.43995        11.08090         0.32346
H         -0.00804        11.06589         0.40029
H         -2.48674        11.06307         0.33404
H         -4.96771        11.05573         0.25978
H         -7.09920         9.81626         0.11559
H         -8.33456         7.68530        -0.06427
H         -9.59340         5.54994        -0.08623
H        -10.84003         3.39297        -0.18185
H        -12.06290         1.24945        -0.23428
H        -12.07527        -1.21658        -0.10790
H        -10.83720        -3.38937        -0.01099
H         -9.58860        -5.56615        -0.09723
H         -8.28393        -7.70513        -0.09798
H         -7.05642        -9.80348        -0.09869
H         -4.92183       -11.02318        -0.04737
H         -2.45132       -11.03362         0.01049
H          0.03623       -11.04314         0.16900
H          2.48693       -11.06332         0.32164
H          4.95262       -11.10438         0.20897
H          7.09996        -9.90700        -0.05397
H          8.36488        -7.79520        -0.13691
H          9.52687        -5.56537         0.24966
H         10.57652        -3.34207         0.62920
