         671
 CSIRO Nanostructure Databank - Neutral Graphene Oxide Data Set
C          5.93160        31.70168        -0.81628
C          5.95053        33.02126        -0.48356
C          8.34568        27.38747        -1.18300
C          8.35356        28.77884        -1.08320
C          7.13588        29.56208        -1.04966
C          8.44306        31.71265        -0.91444
C          7.14848        30.92579        -0.88611
C          8.42386        32.98948        -0.10488
C          7.16396        33.70281        -0.05497
C          8.28612        35.67222         0.94215
C          7.11190        35.00873         0.37248
C          8.37378        37.12423         0.90401
C         10.84736        23.07012        -1.69145
C         10.82924        24.46540        -1.51792
C          9.58547        25.21904        -1.36902
C         10.83757        27.37236        -1.36049
C          9.54717        26.59091        -1.23322
C         10.79572        28.66499        -0.54536
C          9.59366        29.50490        -0.86168
C         10.84775        31.50077        -0.13096
C          9.63769        30.85683        -0.61458
C         10.86063        32.82068         0.29484
C          9.60908        33.54354         0.36121
C         10.88365        35.66465         1.01076
C          9.62060        34.88694         0.98105
C         10.83171        37.04717         1.15100
C          9.58182        37.78507         1.05134
C         10.70543        40.02352         0.86446
C          9.57794        39.22346         1.01103
C         10.55512        41.43767         1.04298
C         13.28809        18.77571        -1.63100
C         13.25206        20.18022        -1.84815
C         12.07362        20.92286        -1.84093
C         13.30245        23.07850        -1.81969
C         12.06852        22.35976        -1.82835
C         13.30728        24.45837        -1.52181
C         12.07682        25.13900        -1.43287
C         13.35127        27.29659        -1.32580
C         12.08410        26.56080        -0.95458
C         13.34479        28.76846        -1.01727
C         12.08644        29.44061        -0.61040
C         13.32025        31.37411         0.28853
C         12.08033        30.74131        -0.15611
C         13.41011        32.69856         0.66815
C         12.08913        33.41828         0.97479
C         13.35295        35.60710         0.96238
C         12.14498        34.94148         0.89678
C         13.40687        37.06581         1.40311
C         12.08110        37.84277         1.28764
C         13.33469        39.95153         0.54330
C         12.04364        39.31976         0.94220
C         13.39622        41.28022         0.12974
C         11.53889        42.36246         0.61076
C         13.21598        44.24499         0.70532
C         11.94903        43.60882         1.05815
C         13.27367        45.63136         0.87399
C         15.82271        14.61213        -0.82190
C         15.74279        15.93796        -1.26794
C         14.53933        16.66958        -1.31069
C         15.75022        18.77903        -1.79101
C         14.49390        18.05305        -1.63079
C         15.78142        20.14489        -1.93340
C         14.52845        20.87786        -2.12885
C         15.88486        23.16533        -2.12933
C         14.56214        22.38842        -2.15618
C         15.84841        24.35946        -1.17875
C         14.58191        25.17233        -1.34795
C         15.89080        27.32301        -1.37993
C         14.61469        26.52674        -1.23581
C         15.90799        28.57548        -0.47036
C         14.58093        29.33033        -0.45858
C         16.26746        31.42484         0.53958
C         14.40151        30.40304         0.35939
C         16.03309        32.84940         0.64645
C         14.69841        33.40378         1.18428
C         15.79724        35.67392         0.84901
C         14.63530        34.92124         0.95438
C         15.77733        37.10943         0.67757
C         14.61107        37.81785         0.86151
C         15.77235        39.99141         0.48873
C         14.57741        39.26431         0.67855
C         15.78578        41.40816         0.37494
C         14.54169        42.10581         0.28607
C         15.69818        44.25827         0.42145
C         14.45658        43.52855         0.41443
C         15.69862        45.66114         0.51708
C         14.48151        46.39148         0.76248
C         15.76783        48.51761         1.25303
C         14.48997        47.77673         0.97652
C         15.76286        50.00681         1.02169
C         18.17546        10.75167         1.02461
C         18.23092        12.00758         0.38662
C         17.04372        12.66157        -0.00676
C         18.33251        14.56103        -0.89279
C         17.05820        13.93564        -0.60479
C         18.33815        15.85664        -1.60366
C         16.98103        16.58551        -1.75700
C         18.19781        18.69047        -2.06730
C         17.00416        18.04649        -1.83034
C         18.28023        20.19382        -2.26194
C         17.07258        20.86161        -1.59294
C         18.35914        23.00389        -1.72842
C         17.12999        22.34173        -1.83208
C         18.35786        24.44394        -1.53046
C         17.15142        25.14309        -1.31754
C         18.38327        27.24685        -1.03932
C         17.16722        26.54132        -1.16343
C         18.39823        28.70147        -0.86896
C         17.08521        29.47402        -0.94292
C         18.34927        31.65474        -0.65712
C         17.19070        30.83321        -0.26222
C         18.35906        33.14230        -0.31065
C         17.10438        33.63468         0.38322
C         18.38295        35.74756         0.63337
C         17.13373        34.99472         1.01038
C         18.33487        37.13119         0.45360
C         17.01840        37.82909         0.17776
C         18.29130        39.98504         0.24690
C         17.06182        39.25411         0.71617
C         18.26216        41.44369        -0.11796
C         16.99917        42.16221         0.28107
C         18.22324        44.30114         0.19730
C         16.96828        43.55745         0.27262
C         18.22483        45.71157         0.19865
C         16.93442        46.41559         0.25497
C         18.24518        48.57151         0.69215
C         16.94512        47.89826         0.53583
C         18.23973        49.98765         0.92995
C         16.96442        50.70146         0.95859
C         18.22390        52.83509         0.99727
C         17.01871        52.13407         0.91230
C         18.26971        54.25616         0.86056
C         20.42888         7.23324         3.73607
C         20.45164         8.47634         2.98606
C         19.32017         8.90935         2.23045
C         20.63251        10.73790         1.18792
C         19.33981        10.09910         1.48652
C         20.67925        12.06251         0.56739
C         19.50907        12.67436         0.16524
C         20.81367        14.62934        -0.69975
C         19.53365        13.96698        -0.50553
C         20.84658        16.10418        -1.07540
C         19.56947        16.64999        -1.70973
C         20.54269        18.77398        -2.63860
C         19.43602        17.97830        -2.11290
C         20.77975        20.09944        -2.45580
C         19.63047        20.81277        -1.76375
C         20.82333        23.02961        -2.10478
C         19.62988        22.32087        -1.89867
C         20.80453        24.45083        -1.85404
C         19.61119        25.13585        -1.50866
C         20.85193        27.24772        -1.02600
C         19.62365        26.54454        -1.17404
C         20.85495        28.62534        -0.40066
C         19.57258        29.37912        -0.66956
C         20.88421        31.56256        -0.32186
C         19.62736        30.86251        -0.66800
C         20.86814        32.89556         0.06446
C         19.58772        33.54335         0.55661
C         20.81988        35.76757         0.35250
C         19.61110        35.05656         0.56310
C         20.78047        37.18500         0.30158
C         19.54331        37.85819         0.34044
C         20.71281        40.06963         0.48794
C         19.47322        39.31539         0.21628
C         20.73666        41.53287         0.37363
C         19.52527        42.19747         0.22459
C         20.71456        44.33929         0.15637
C         19.47955        43.61858         0.19324
C         20.70247        45.76157         0.10699
C         19.43654        46.45415         0.19331
C         20.68134        48.63198         0.34798
C         19.41742        47.86573         0.41614
C         20.72993        49.91384         1.14709
C         19.44716        50.69693         1.02366
C         20.70847        52.81384         1.20769
C         19.47648        52.10977         1.12654
C         20.66337        54.28303         1.63119
C         19.41754        55.02210         1.08873
C         20.28158        57.37613         1.28824
C         19.33865        56.41993         0.82384
C         20.66516        58.62589         0.82652
C         22.53636         5.36334         6.18608
C         21.48638         5.65153         5.32215
C         22.36864         7.99677         5.08900
C         21.41903         6.90340         4.64289
C         22.75972         8.90903         3.92175
C         21.59441         9.28810         3.05433
C         22.94340        11.29225         2.24687
C         21.83181        10.32339         2.06418
C         23.03569        12.43274         1.41054
C         22.04678        12.62735         0.25647
C         23.22046        14.80681        -0.19132
C         21.98541        14.05507        -0.23548
C         23.45554        15.85349        -1.24667
C         22.17402        16.53970        -1.67718
C         23.51879        18.46474        -2.57643
C         22.34901        17.57043        -2.53410
C         23.35246        19.91882        -2.82635
C         22.07598        20.77156        -2.85785
C         23.37050        23.11292        -2.48713
C         22.08258        22.33181        -2.63051
C         23.34497        24.58680        -2.21779
C         22.02365        25.27888        -1.97160
C         23.30401        27.33276        -1.27180
C         22.06497        26.63447        -1.37185
C         23.31746        28.73060        -0.90998
C         22.11129        29.42528        -0.67346
C         23.33916        31.56001        -0.37834
C         22.11508        30.83332        -0.48007
C         23.33427        32.96210        -0.16045
C         22.09001        33.65516         0.07096
C         23.31969        35.81977        -0.17290
C         22.06423        35.05611         0.18220
C         23.33120        37.24797         0.29340
C         22.04151        37.97723         0.01674
C         23.24239        40.11365         0.86001
C         21.97816        39.33632         0.66190
C         23.23937        41.54952         0.48978
C         21.99534        42.21563         0.32690
C         23.17278        44.34483        -0.06251
C         21.96157        43.64197         0.12684
C         23.15957        45.74760        -0.07506
C         21.94088        46.44910         0.02475
C         23.24570        48.60948         0.38534
C         21.96634        47.92356         0.07417
C         23.19629        50.02623         0.63979
C         21.96923        50.71471         0.84641
C         23.17287        52.87255         0.58313
C         21.92866        52.11850         0.98699
C         23.25566        54.21696         1.29127
C         21.97227        54.99777         1.34115
C         23.28492        57.12963         1.47554
C         22.12291        56.29362         1.72339
C         23.17392        58.56263         1.41715
C         21.93394        59.26316         1.17607
C         23.19097        61.38037         1.21137
C         21.99136        60.66601         1.05806
C         23.60737         6.25763         6.39554
C         24.73962         8.38004         5.83453
C         23.62452         7.52512         5.79088
C         24.82067         9.60422         5.11768
C         23.58367        10.11592         4.39861
C         25.04970        11.86598         3.34148
C         23.88875        11.06785         3.26345
C         25.17390        13.00227         2.48977
C         24.10759        13.33097         1.58074
C         25.33505        15.43021         0.91416
C         24.19521        14.50801         0.73750
C         25.56778        16.51945        -0.06245
C         24.61232        16.80052        -0.98921
C         25.81472        18.97703        -1.52421
C         24.76338        17.99324        -1.84271
C         25.81199        20.21008        -2.27605
C         24.61119        20.52160        -2.99117
C         25.88077        23.38957        -2.97716
C         24.55110        22.71257        -3.03412
C         25.89822        24.54860        -1.97369
C         24.59113        25.31396        -1.91072
C         25.79146        27.46969        -1.61920
C         24.54413        26.65203        -1.56318
C         25.80947        28.78870        -0.94618
C         24.56459        29.44291        -0.75768
C         25.80417        31.48656        -0.18608
C         24.57905        30.83062        -0.44431
C         25.88333        32.98841        -0.23384
C         24.56567        33.68911        -0.04919
C         25.79290        35.79778         0.37826
C         24.57807        35.06441         0.12734
C         25.76131        37.17085         0.61410
C         24.50252        37.88756         0.63461
C         25.81625        40.15667         1.03765
C         24.51378        39.34753         1.00153
C         25.71141        41.53079         0.38232
C         24.48346        42.19081         0.21077
C         25.69187        44.35895        -0.22318
C         24.41919        43.57020        -0.44234
C         25.68366        45.70509        -0.07906
C         24.43260        46.51466        -0.36435
C         25.70043        48.56133         0.46475
C         24.44327        47.90874         0.23756
C         25.67413        49.97005         0.88894
C         24.43820        50.74652         0.73846
C         25.72126        52.85267         0.84181
C         24.47418        52.13417         0.78404
C         25.76256        54.35265         1.06067
C         24.42945        55.04289         0.74864
C         25.72730        57.19651         1.08085
C         24.48299        56.48044         1.21053
C         25.65881        58.60407         1.29784
C         24.42001        59.28456         1.38488
C         24.39320        60.71125         1.35748
C         25.99407        10.34833         5.06484
C         27.31818        12.25306         4.20650
C         26.12701        11.51102         4.23607
C         27.46507        13.37413         3.35287
C         26.37802        13.74914         2.52899
C         27.83722        15.51866         1.40225
C         26.46813        15.01849         1.78961
C         27.80246        16.94137         0.90128
C         26.75287        17.36825         0.10354
C         27.96182        19.57567        -0.41710
C         26.80046        18.62473        -0.60901
C         28.23576        20.31129        -1.74668
C         26.98237        21.08566        -2.21787
C         28.35197        23.13245        -2.63658
C         27.05314        22.42380        -2.58685
C         28.39444        24.71457        -2.46556
C         27.14072        25.38052        -2.17813
C         28.38870        27.54268        -1.68647
C         27.10653        26.82525        -1.98211
C         28.32889        28.83625        -0.92975
C         27.00861        29.42278        -0.59075
C         28.26116        31.45770         0.18817
C         27.00483        30.76317        -0.11689
C         28.26625        32.80441         0.42806
C         26.96472        33.55109         0.68244
C         28.23259        35.73028         0.57358
C         27.05293        35.05783         0.50818
C         28.25152        37.21372         0.29299
C         27.05143        37.90219         0.97770
C         28.20003        40.04120         0.35985
C         27.02259        39.36512         0.60665
C         28.17164        41.47680         0.12317
C         26.96618        42.16770         0.08986
C         28.23078        44.33845        -0.16627
C         26.96475        43.57378        -0.46604
C         28.19658        45.72111        -0.06621
C         26.94116        46.40773         0.39350
C         28.16578        48.65216         0.33387
C         26.93005        47.91512         0.30370
C         28.21651        50.02114         0.57452
C         26.99355        50.73802         0.95022
C         28.20962        52.93036         0.73234
C         26.94502        52.19980         0.82826
C         28.21814        54.31641         0.62612
C         26.93481        55.06420         0.35737
C         26.91934        56.52175         0.75668
C         28.68321        14.15695         3.32339
C         30.12294        15.90528         2.31756
C         28.87722        15.21874         2.46023
C         30.23952        17.04917         1.53188
C         28.98766        17.82848         1.17373
C         30.44467        19.34955        -0.16984
C         29.19815        18.85836         0.09230
C         30.58368        20.58162        -0.94757
C         29.52415        21.10740        -1.62488
C         30.89786        23.19387        -2.17928
C         29.62768        22.40823        -2.32063
C         30.86631        24.67173        -2.15466
C         29.67618        25.39149        -2.11910
C         30.82009        27.43139        -1.30867
C         29.65437        26.76579        -1.69532
C         30.81031        28.71547        -0.66265
C         29.51385        29.16610        -0.02994
C         30.80599        31.41106         0.30577
C         29.50908        30.64318         0.52632
C         30.80100        32.84351         0.81826
C         29.55168        33.57652         0.30326
C         30.78767        35.76568         0.90052
C         29.49895        35.00460         0.81720
C         30.75734        37.24842         0.76377
C         29.55365        37.92606         0.60922
C         30.64402        40.13677         0.62379
C         29.47972        39.35543         0.48946
C         30.69833        41.49578         0.22522
C         29.45489        42.13966        -0.35379
C         30.69441        44.34723        -0.06836
C         29.46198        43.64022        -0.17608
C         30.71097        45.76450        -0.09996
C         29.43973        46.47456        -0.22203
C         30.71685        48.66663         0.20051
C         29.42731        47.98658        -0.06740
C         30.68567        50.05521         0.43819
C         29.45860        50.76979         0.54804
C         29.42678        52.16936         0.69317
C         31.50731        17.57673         1.17643
C         32.93381        19.23432         0.05122
C         31.64726        18.71272         0.37198
C         33.09682        20.49324        -0.53198
C         31.85582        21.34835        -0.67304
C         33.30654        23.16546        -1.53041
C         32.06704        22.55574        -1.53125
C         33.39793        24.58839        -1.75478
C         32.15602        25.35234        -2.03066
C         33.31618        27.41184        -1.00568
C         32.11877        26.82422        -1.59382
C         33.27971        28.72262        -0.56041
C         32.00298        29.38579        -0.39901
C         33.28064        31.53309         0.18888
C         31.97875        30.76698         0.04179
C         33.04553        32.95079        -0.36305
C         32.00431        33.67988         0.41102
C         33.34623        35.78355         0.55817
C         32.04212        35.03163         0.55176
C         33.36254        37.24900         0.92894
C         32.00482        37.96653         1.12561
C         33.02637        40.35770         1.26338
C         31.84619        39.51005         1.19504
C         33.14914        41.58385         0.66327
C         31.91185        42.22806         0.25924
C         33.16921        44.36334         0.14235
C         31.93291        43.63594         0.06311
C         33.14810        45.77163         0.08586
C         31.93061        46.49812         0.00407
C         31.90577        47.92227         0.12994
C         34.36482        21.08669        -0.73780
C         35.75340        23.11949        -1.13299
C         34.50409        22.44132        -1.11554
C         35.82113        24.51875        -1.27899
C         34.57360        25.24070        -1.46367
C         35.76669        27.45549        -1.38160
C         34.58370        26.62665        -0.87612
C         35.84331        28.78235        -0.62090
C         34.51580        29.46897        -0.48044
C         35.56656        31.60793        -0.99262
C         34.48693        30.84633        -0.42588
C         35.26603        32.97207        -1.27996
C         34.29545        33.72340        -0.63217
C         35.68756        35.96204        -0.66110
C         34.62347        35.06108         0.02770
C         35.70880        37.40654        -0.26901
C         34.62082        38.00562         0.56150
C         35.89309        40.17154         0.49045
C         34.87091        39.26952         1.00670
C         35.68972        41.57486         0.48324
C         34.43982        42.26915         0.53655
C         34.39999        43.64871         0.29103
C         37.03497        25.28096        -1.21570
C         38.23543        27.47942        -1.24065
C         37.06907        26.68659        -1.26484
C         38.20596        28.90578        -1.25442
C         36.98263        29.63362        -1.12415
C         38.14378        31.81306        -1.35706
C         36.88772        31.03810        -1.22677
C         38.27551        33.21271        -1.39559
C         37.15454        34.09752        -1.50703
C         38.28587        36.00288        -0.57351
C         37.03882        35.33729        -0.92132
C         38.22805        37.40996        -0.27751
C         37.03543        38.11521        -0.19273
C         37.04814        39.52686         0.01634
C         39.41002        29.67405        -1.25331
C         40.63459        31.76219        -0.96319
C         39.38534        31.05683        -1.22620
C         40.73438        33.10431        -0.91972
C         39.59205        33.96003        -1.37226
C         39.48320        35.32046        -0.70705
O         32.34114        26.42884        -3.00040
O         36.06560        33.61182        -2.21682
O         16.71306        47.42999        -0.81722
O          8.80010        35.03614         2.17072
O         15.39474        30.65390         1.32346
O         12.28417        41.84575        -0.47214
O         18.99242        31.39471        -1.94298
O         21.90337        21.71828        -3.95076
O         25.49545        15.98445         2.28983
O         17.58654        15.86605        -2.86933
O         12.08723        38.85141         2.36186
O         33.58140        36.23138         1.95722
O         23.74748        39.71625         2.20110
O         22.99213        53.11109        -0.89529
O         24.62702        21.60349        -3.86908
O         26.28275        27.52025        -3.01029
O         30.57414        22.47782        -3.44738
O         21.37609        18.00536        -3.43945
O         35.25654        36.96334        -1.62065
O         21.05097        56.91153         2.38003
O         28.48219        24.01523        -3.76077
O         14.47043        21.62917        -3.41119
O         21.23791        48.64846        -1.00551
O         31.75672        38.66310         2.38406
O         13.33001        28.27107        -2.41259
O         24.63090        17.81197        -3.30439
O         29.46738        28.25478         1.05802
O         22.60868        25.24725        -3.32256
O         34.06811        39.82001         2.01242
O         28.55763        28.84089        -2.37062
O         30.09868        35.27855         2.11746
O         21.14070        39.52044         1.83280
O         21.66974         9.82610         0.67929
O         26.35960        50.20807         2.16829
O         29.36834        47.40095        -1.40368
O         16.80990        29.86230        -2.30570
H         17.61516        30.32154        -2.64487
O         14.73066        33.22074         2.63635
H         14.83799        32.25502         2.79393
O         26.06434        23.91901        -0.65330
H         26.10068        24.62481         0.02684
O         16.06739        23.70631        -3.45542
H         15.84660        22.98723        -4.09032
O         23.87522        15.09012        -2.43001
H         24.17263        15.74394        -3.10582
O         22.82818        10.93911         5.31901
H         22.37644        10.34223         5.96400
O         17.13037        20.71189        -0.14330
H         18.06944        20.82634         0.14488
O          8.59799        32.15930        -2.31339
H          8.70266        31.35442        -2.86497
O         35.34142        34.58048         1.20561
H         34.88285        34.93800         2.00470
O         28.07482        37.36827        -1.14491
H         27.23603        36.92491        -1.39624
O         34.72902        26.33427         0.54653
H         35.24499        27.06789         0.96769
O         16.05239        48.30563         2.69175
H         15.37125        48.79102         3.20348
O         33.57740        31.62951         1.60396
H         32.76746        31.96767         2.05960
O         16.19166        28.09158         0.85890
H         16.06229        28.84734         1.47874
O         26.05814        54.54869         2.46492
H         25.30697        54.17095         2.98099
O         21.59591         8.76013         6.07335
H         21.37060         8.14511         6.80307
O         23.08125        51.83402        -1.56310
H         22.13656        51.58812        -1.72060
O         17.28045        34.72978         2.45745
H         16.41794        34.37317         2.78449
O         26.33991        33.31033        -1.59468
H         25.81143        32.77860        -2.22732
O         23.28993        35.89670        -1.67634
H         23.28585        34.97170        -2.00774
O         19.38263        33.03285         1.89546
H         18.73730        33.63337         2.35358
O         22.58568        11.85028        -0.85665
H         22.49585        10.89852        -0.60244
O         26.10819        40.42484         2.45708
H         25.22216        40.49324         2.89765
O         20.83034        49.47651         2.54416
H         20.77183        50.27434         3.11142
O         29.77507        33.69423        -1.14942
H         28.89997        33.73033        -1.59625
O         18.22808        41.45186        -1.59553
H         18.17141        42.38736        -1.88558
O         24.30403        43.32949        -1.89286
H         24.15089        44.20663        -2.31108
O         11.88999        33.14673         2.40334
H         12.68173        33.49881         2.87463
O         17.20594        39.12007         2.16332
H         17.37332        40.00714         2.54399
O         29.48703        41.92628        -1.80669
H         28.68716        42.38496        -2.16913
O         39.89441        34.29078        -2.78406
H         39.13632        34.80909        -3.13093
O         23.65874         8.15925         3.05954
H         23.13579         7.47371         2.59289
O         10.90974        27.75092        -2.75013
H         11.03528        26.94155        -3.28726
O         20.53456        54.23800         3.09451
H         20.47679        55.17894         3.38434
O         16.90105        37.91184        -1.26764
H         17.07329        37.02396        -1.64517
O         26.56810        33.27968         2.04469
H         27.25747        33.63500         2.64427
O         32.45576        32.77740        -1.70114
H         31.52301        33.10987        -1.68647
O         19.74950        20.54380        -0.32644
H         20.57731        20.95748        -0.00373
O         28.21060        14.68798         0.24915
H         29.12448        14.93009        -0.01218
O         30.83477        32.75070         2.25707
H         30.25028        31.98370         2.50519
O         12.17458        26.44105         0.49302
H         11.31754        26.09895         0.82498
O         28.64231        18.62102         2.37925
H         29.46494        19.06720         2.67572
O         35.53398        27.78623        -2.76371
H         35.28376        26.97105        -3.24731
O         20.88334        28.39760         1.06113
H         20.07734        27.88819         1.29282
O         28.47820        19.27194        -2.72576
H         28.72584        19.69744        -3.57321
O         29.40150        30.52161         1.97545
H         29.43838        29.52048         2.12427
O         27.59245        20.55016         0.58924
H         27.65160        20.09002         1.46159
O         24.45131        46.69904        -1.82468
H         23.73053        47.32583        -2.05251
O         23.50605        53.88659         2.69672
H         22.63076        53.74930         3.13049
O         27.01837        43.38891        -1.93037
H         26.09765        43.14688        -2.21564
O         26.07988        23.92594        -4.29077
H         25.88766        23.21878        -4.94174
O         13.66300        36.92974         2.83705
H         13.36808        37.77498         3.25078
O         15.93011        27.65581        -2.78290
H         15.08542        28.11580        -3.00950
O         18.43244        33.88530        -1.55144
H         18.78644        33.26303        -2.23088
O         22.04885        38.27430        -1.41717
H         22.33828        37.45131        -1.88410
O         15.82030        23.82072         0.16986
H         15.71383        24.56805         0.79538
O         18.16582        20.48258        -3.66710
H         18.92464        20.07524        -4.13721
O         10.59861        28.29936         0.86030
H         10.52327        29.13128         1.37456
O         27.21803        37.83121         2.41342
H         26.83510        38.65669         2.80035
O         20.88209        16.80562         0.23552
H         20.14984        16.45245         0.78490
O         24.20604        55.18293        -0.66919
H         25.06599        55.41658        -1.10138
O         31.63236        21.91056         0.68161
H         32.46750        22.34527         0.95992
O         36.24281        28.47571         0.76910
H         36.12633        29.29349         1.29965
O         26.96520        46.16678         1.85982
H         26.36758        46.82062         2.28384
O         26.78286        55.02835        -1.11198
H         26.84906        54.09031        -1.39370
H          4.97554        31.19887        -1.02756
H          5.00967        33.59022        -0.44481
H          7.37501        26.86982        -1.24669
H          6.17142        29.03296        -1.10770
H          6.17941        35.58481         0.27172
H          7.46567        37.70024         0.67105
H          9.90008        22.51059        -1.70362
H          8.64359        24.64758        -1.37596
H          8.59376        39.71541         1.04294
H          9.63696        41.79449         1.53502
H         12.34350        18.24491        -1.43774
H         11.11077        20.40025        -1.73424
H         11.31113        44.15344         1.77085
H         12.35045        46.16821         1.13918
H         14.89746        14.09729        -0.52090
H         13.60090        16.15953        -1.04391
H         13.53452        48.28368         1.18685
H         14.81006        50.55839         1.03194
H         17.19375        10.28721         1.20071
H         16.07700        12.17487         0.19049
H         16.07597        52.69594         0.83016
H         17.33876        54.77418         0.58012
H         19.62751         6.51067         3.51749
H         18.36954         8.36836         2.34853
H         18.49428        56.76670         0.20632
H         20.02201        59.16226         0.11187
H         22.56860         4.38010         6.67659
H         20.71758         4.89110         5.12098
H         23.17542        62.47798         1.15866
H         21.06350        61.21867         0.85111
H         24.47112         5.93152         6.99347
H         25.63399         8.04039         6.38262
H         26.58499        59.19846         1.26858
H         25.34102        61.26705         1.39435
H         26.87197        10.01532         5.64141
H         28.15137        11.96444         4.86473
H         29.17709        54.84407         0.50447
H         27.85863        57.09406         0.69744
H         29.48557        13.88515         4.02700
H         31.02678        15.47360         2.77723
H         31.63368        50.60599         0.53063
H         30.37991        52.71968         0.68126
H         32.41042        17.05462         1.52878
H         33.82308        18.65976         0.35460
H         34.09473        46.32553         0.17040
H         32.86371        48.44586         0.26780
H         35.26760        20.49140        -0.53085
H         36.67196        22.54996        -0.92424
H         36.55973        42.18862         0.19658
H         35.34355        44.21045         0.21732
H         37.98622        24.73382        -1.11520
H         39.22013        26.98539        -1.22887
H         39.17581        37.95489        -0.15127
H         37.96206        40.09898        -0.20247
H         40.37687        29.15098        -1.19938
H         41.50823        31.13890        -0.71638
H         41.68839        33.59091        -0.66963
H         40.42505        35.87400        -0.56920
