         210
 CSIRO Nanostructure Databank - Neutral Graphene Oxide Data Set
C         30.40213        31.64912        -0.24130
C         30.47074        32.90882        -0.30311
C         30.45855        36.00288        -0.13247
C         30.45605        37.24598         0.01370
C         30.44824        40.34752         0.24343
C         30.39072        41.60186         0.20341
C         32.77355        28.81443         0.39396
C         31.72747        29.43014         0.14559
C         32.77645        31.56165        -0.09931
C         31.53619        30.82875        -0.11674
C         32.79662        32.97033        -0.20225
C         31.59793        33.74553        -0.28475
C         32.80635        35.93788        -0.09454
C         31.61077        35.18053        -0.21176
C         32.81437        37.36010         0.05438
C         31.58349        38.09391         0.10994
C         32.80144        40.25777         0.11269
C         31.57631        39.50607         0.17495
C         32.77330        41.68214         0.04512
C         31.54008        42.42331         0.11359
C         32.81476        44.36043         0.11428
C         31.65867        43.85320         0.05176
C         35.53413        27.35527         0.50424
C         35.33641        28.73218         0.57113
C         34.06352        29.48704         0.80591
C         35.30487        31.60481         0.34572
C         34.09273        30.78451        -0.07601
C         35.29166        32.98109         0.24464
C         34.08873        33.70513        -0.22380
C         35.31888        35.95184         0.25880
C         34.09617        35.21915        -0.16932
C         35.30176        37.37830         0.27024
C         34.05445        38.10528         0.14467
C         35.29494        40.25551         0.31479
C         34.04897        39.51725         0.15871
C         35.29176        41.65142         0.26197
C         34.08724        42.38380        -0.28453
C         35.33508        44.56900         0.21459
C         34.11971        43.88407         0.09367
C         35.52623        45.98170         0.24868
C         37.89651        27.34041         0.29604
C         36.62944        26.74292         0.33662
C         37.83289        28.76607         0.36995
C         36.57472        29.44371         0.49855
C         37.75837        31.59386         0.73065
C         36.53797        30.88854         0.57576
C         37.68884        33.01855         1.11663
C         36.42492        33.77120         0.76110
C         37.73363        35.93313         0.72120
C         36.48680        35.24433         0.56974
C         37.75523        37.35765         0.58003
C         36.52735        38.08295         0.43553
C         37.78262        40.19031         0.47864
C         36.53907        39.51953         0.45697
C         37.83694        41.64904         0.64042
C         36.50247        42.41833         0.56592
C         37.84911        44.52673         0.28404
C         36.58692        43.86837         0.29932
C         37.91934        45.96805         0.23642
C         36.63473        46.56062         0.25824
C         40.26085        24.83403        -1.15301
C         39.30375        25.35322        -0.56892
C         40.38558        27.50593        -0.30391
C         39.16969        26.64413         0.10249
C         40.24894        28.96024        -0.20834
C         39.05144        29.54976         0.21083
C         40.23470        31.73105         0.52539
C         38.99554        30.96850         0.46354
C         40.21008        33.04894         0.96077
C         38.97145        33.77660         1.42737
C         40.16766        35.94456         1.04642
C         38.95953        35.24003         0.98203
C         40.22539        37.35064         0.79964
C         39.00352        38.05496         0.59574
C         40.25202        40.18413         0.29407
C         39.01461        39.47944         0.44624
C         40.24384        41.59660         0.09773
C         39.07948        42.36861         0.30689
C         40.34015        44.49210        -0.03086
C         39.09310        43.79036         0.20609
C         40.37956        45.93363        -0.11188
C         39.14804        46.64749         0.07707
C         40.37703        48.70027        -0.30553
C         39.34271        48.03847        -0.03879
C         42.72242        24.96624        -1.94262
C         41.33656        25.57634        -1.89397
C         42.68799        27.67875        -1.12769
C         41.49283        26.94692        -1.12232
C         42.72946        29.07153        -0.72393
C         41.40863        29.82090        -0.66505
C         42.70893        31.73951         0.28294
C         41.48359        31.10931         0.11793
C         42.76009        33.04710         0.96814
C         41.45489        33.73802         1.31020
C         42.71789        35.97111         1.38412
C         41.41057        35.23417         1.44603
C         42.72812        37.39110         0.93181
C         41.48350        38.06116         0.73276
C         42.73807        40.10442         0.18988
C         41.49350        39.44756         0.37518
C         42.76851        41.51064        -0.26427
C         41.48079        42.29398        -0.28552
C         42.77849        44.43244        -0.49087
C         41.53533        43.76789        -0.22265
C         42.79287        45.85536        -0.66425
C         41.59745        46.62560        -0.43992
C         42.88933        48.59806        -0.93023
C         41.62001        48.08335        -0.56488
C         43.71849        25.70785        -1.90988
C         45.15813        27.71259        -1.31166
C         43.95266        27.04607        -1.48085
C         45.20696        29.09944        -0.87320
C         43.93752        29.76346        -0.61447
C         45.17204        31.84135         0.01807
C         43.95613        31.14400        -0.14547
C         45.21798        33.15894         0.54331
C         43.99717        33.85700         0.89916
C         45.21912        35.97106         1.55420
C         43.97386        35.19152         1.22653
C         45.25361        37.25587         0.67299
C         43.95199        38.04735         0.71252
C         45.22354        40.11499         0.04048
C         43.96563        39.42166         0.34215
C         45.27545        41.47764        -0.27696
C         44.03490        42.29742        -0.00299
C         45.18914        44.30014        -1.01716
C         43.99765        43.68949        -0.59575
C         45.19236        45.71067        -1.26071
C         44.03605        46.47605        -1.04624
C         43.89443        47.88378        -1.14464
C         47.55339        27.77393        -1.30912
C         46.46789        27.18921        -1.49802
C         47.70360        29.12977        -0.89636
C         46.43450        29.77453        -0.71088
C         47.73693        31.82702         0.06743
C         46.45792        31.28008        -0.55771
C         47.72315        33.13528         0.60197
C         46.46164        33.81950         0.77651
C         47.68414        35.64027         1.75317
C         46.46281        35.10934         1.36006
C         47.69952        37.73567         1.39469
C         46.46950        38.16203         0.81630
C         47.73098        40.04615        -0.19984
C         46.45848        39.40081         0.17518
C         47.74865        41.48009        -0.52351
C         46.50820        42.13421        -0.61340
C         47.78841        44.16450        -1.55099
C         46.43125        43.48968        -1.19480
C         47.61566        45.62497        -1.57508
C         46.49836        46.16591        -1.62658
C         50.22580        29.24661        -0.69341
C         48.92552        29.78251        -0.61834
C         50.22336        31.74528         0.29429
C         48.96754        31.13356        -0.08654
C         50.20732        33.09808         0.77333
C         48.96450        33.78693         0.92533
C         50.15504        35.94854         1.47465
C         48.95658        35.13273         1.39608
C         50.15933        37.40258         1.35470
C         48.96338        38.15281         1.01197
C         50.27207        40.17630         0.27034
C         49.04836        39.35943         0.16600
C         50.26892        41.52587        -0.20929
C         49.02809        42.15146        -0.66203
C         50.28437        44.10204        -1.01560
C         49.01937        43.50500        -1.11637
C         51.34371        29.72361        -0.37707
C         52.60424        31.78419         0.58225
C         51.48682        31.02755         0.16313
C         52.52950        32.97184         0.98944
C         51.40744        33.81257         1.13751
C         52.51609        36.06052         1.52306
C         51.38817        35.20607         1.43000
C         52.50754        37.31114         1.44634
C         51.38327        38.14502         1.23966
C         52.52812        40.38776         0.78610
C         51.40863        39.52411         0.83111
C         52.60542        41.57266         0.37875
C         51.51748        42.29299        -0.16792
C         51.38344        43.61374        -0.64355
O         42.21892        33.03088         2.33719
O         42.02157        35.75915         2.66718
O         34.30630        34.49484        -1.44906
O         42.11856        41.75824        -1.53279
O         37.14328        42.09588         1.84804
O         48.49683        39.23229        -1.18008
O         47.65277        36.83778         2.46963
O         36.70027        33.32214         2.15541
O         40.21730        26.86751         1.05502
O         47.00487        43.50590        -2.55439
O         45.10278        36.40102         2.92430
H         44.54751        35.75975         3.41559
O         46.48923        31.79686        -1.93984
H         47.29511        31.44495        -2.37492
O         41.11244        30.21324        -2.05670
H         41.14613        29.40271        -2.60893
O         33.97716        29.87064         2.16872
H         34.08765        29.08063         2.73666
O         34.21735        42.35657        -1.74296
H         33.40396        42.74859        -2.12696
O         45.36269        36.73986        -0.68708
H         45.43536        37.49765        -1.30583
O         34.33777        30.32140        -1.42379
H         34.28787        31.08803        -2.03218
O         44.02687        42.50963         1.45153
H         44.85785        42.96380         1.70483
O         40.91028        25.87157        -3.20211
H         40.81747        25.03718        -3.70627
O         39.10799        33.81535         2.87384
H         38.19540        33.84530         3.24466
