         618
 CSIRO Nanostructure Databank - Neutral Graphene Oxide Data Set
C          6.36398        31.45681        -0.98617
C          6.46970        32.75194        -1.39551
C          8.42057        27.34308         0.92425
C          8.43056        28.70919         0.64236
C          7.34400        29.44346         0.08489
C          8.64859        31.55658        -0.08002
C          7.45843        30.78745        -0.31957
C          8.79517        32.87476        -0.51117
C          7.69243        33.51379        -1.22408
C          9.13555        35.49673        -1.68432
C          7.80569        34.79816        -1.69356
C          9.10658        36.98573        -1.89511
C         10.84346        23.11738         1.62101
C         10.75832        24.48290         1.81854
C          9.59721        25.22038         1.42300
C         10.78071        27.32800         1.80794
C          9.56254        26.61518         1.41443
C         10.84941        28.76993         1.46693
C          9.70318        29.45257         0.80786
C         11.06284        31.55939         0.64741
C          9.65964        30.97631         0.87130
C         11.07408        33.06213         0.53415
C          9.96837        33.66489        -0.18020
C         11.03562        35.87213        -0.02863
C         10.03673        35.01863        -0.56722
C         10.92937        37.26750        -0.28150
C         10.04737        37.80789        -1.30287
C         11.20733        40.03526        -1.08631
C         10.24543        39.18902        -1.65908
C         11.37401        41.33863        -1.68804
C         13.21288        18.88184         1.13808
C         13.26445        20.18953         1.66442
C         12.05391        20.98809         1.63710
C         13.19841        23.02035         2.50752
C         12.01532        22.33636         1.92597
C         13.22639        24.51798         2.41845
C         11.87347        25.20232         2.55713
C         13.18274        27.42157         2.45443
C         11.90525        26.68331         2.24297
C         13.21049        28.90747         2.36997
C         11.92424        29.61412         2.07702
C         13.43785        31.59515         1.56821
C         12.03123        31.05011         1.70081
C         13.48264        33.05915         1.22837
C         12.25989        33.73084         0.76196
C         13.38675        35.92050         1.17285
C         12.35440        35.18624         0.34801
C         13.32317        37.26071         1.44391
C         11.66069        38.24658         0.44645
C         13.19071        40.19255         0.64744
C         11.99615        39.54143         0.05543
C         13.28667        41.57822         0.52003
C         11.93216        42.41131        -1.00845
C         13.42948        44.36831        -0.74885
C         12.41198        43.66081        -1.45192
C         13.51339        45.75685        -1.00963
C         15.65556        14.81468        -0.75186
C         15.59617        16.09869        -0.10514
C         14.40334        16.73298         0.22690
C         15.66257        18.76574         0.88883
C         14.40799        17.95871         1.11789
C         15.71002        20.11789         1.57532
C         14.49532        20.80534         2.07284
C         15.74347        23.06555         2.57489
C         14.52750        22.20772         2.57657
C         15.71034        24.56914         2.68615
C         14.39409        25.22721         2.38018
C         15.62966        27.35511         2.01931
C         14.45162        26.68214         2.24886
C         15.70032        28.84082         1.67542
C         14.42566        29.67431         1.88350
C         15.74053        31.71188         2.50196
C         14.53671        31.07532         2.45691
C         15.87026        33.12145         2.05127
C         14.63316        33.77097         1.52563
C         15.86635        36.04413         1.74687
C         14.69335        35.23208         1.26803
C         15.64128        37.50331         2.03537
C         14.44303        38.15976         1.50116
C         15.60943        40.32038         1.32806
C         14.37481        39.53070         1.21259
C         15.68175        41.71069         0.89138
C         14.48540        42.36694         0.48184
C         15.71400        44.47083         0.19759
C         14.49958        43.73092         0.02824
C         15.76272        45.87736        -0.07215
C         14.58996        46.55165        -0.59068
C         15.71710        48.74593        -0.50339
C         14.59410        47.95308        -0.79483
C         15.76259        50.10972        -0.82991
C         18.09219        10.96854        -2.62662
C         18.07030        12.27166        -2.09853
C         16.88495        12.88066        -1.66895
C         18.13474        14.81203        -0.74233
C         16.86149        14.17825        -1.07137
C         18.11129        16.04576        -0.09118
C         16.88406        16.73196         0.18994
C         18.17831        18.76073         0.74117
C         16.93241        18.03570         0.67851
C         18.19204        20.06356         1.36671
C         17.05516        20.45451         2.01803
C         18.18415        23.11442         2.15254
C         17.03462        22.53092         2.67945
C         18.07543        24.47990         1.66464
C         16.88408        25.25223         2.00344
C         18.15444        27.31836         1.61074
C         16.88741        26.62103         1.84135
C         18.19791        28.74362         2.05192
C         16.92764        29.45310         2.37005
C         18.29577        31.64053         2.94880
C         16.97176        30.92363         2.75571
C         18.27005        33.19024         3.22582
C         17.10898        33.91016         2.45248
C         17.90212        36.28486         3.01839
C         16.99494        35.41157         2.47570
C         18.09924        37.65950         2.54527
C         16.83816        38.38409         2.31921
C         18.10411        40.31533         1.40512
C         16.79525        39.72960         1.76850
C         18.15839        41.77317         1.20722
C         16.91324        42.43096         0.92560
C         18.15957        44.54353         0.65797
C         16.92056        43.82671         0.62647
C         18.17394        45.94920         0.42004
C         16.94549        46.60432         0.12531
C         18.23067        48.82569         0.05933
C         16.91472        48.07719         0.05953
C         18.23446        50.26074        -0.37429
C         16.96311        50.87173        -0.83364
C         18.22099        52.80750        -1.73481
C         16.99519        52.15559        -1.36548
C         18.20924        54.10599        -2.26297
C         20.53494         7.34673        -4.93432
C         20.51382         8.51593        -4.17022
C         19.30224         9.11226        -3.71748
C         20.57414        10.95717        -2.68733
C         19.29856        10.32808        -3.02387
C         20.58824        12.23881        -2.16632
C         19.33929        13.09275        -2.16912
C         20.60295        14.83156        -0.86551
C         19.38840        14.23012        -1.16234
C         20.69393        15.99919         0.01198
C         19.37020        16.67249         0.33921
C         20.67764        18.84270         0.55091
C         19.39103        18.11379         0.55835
C         20.70440        20.29318         0.93445
C         19.38937        20.93634         1.26493
C         20.67268        23.09720         1.74374
C         19.37070        22.38373         1.62727
C         20.68647        24.46747         1.67149
C         19.41552        25.19728         1.38947
C         20.65409        27.36070         1.32715
C         19.35934        26.65189         1.52267
C         20.63700        28.86435         1.28925
C         19.34380        29.64109         1.62780
C         20.60322        31.69855         1.94005
C         19.52510        30.90259         2.50753
C         20.64083        33.20065         2.11488
C         19.58997        33.86421         2.86375
C         20.77122        35.98194         2.46394
C         19.79981        35.19727         3.14792
C         20.57797        37.38895         2.07640
C         19.32920        38.19239         2.25849
C         20.65908        40.31337         1.61912
C         19.38258        39.54305         1.60454
C         20.64757        41.71745         1.39520
C         19.38614        42.43619         1.18493
C         20.61638        44.53892         0.75930
C         19.39865        43.85284         0.90225
C         20.63698        45.90500         0.36232
C         19.42385        46.65522         0.29243
C         20.67617        48.63639        -0.50986
C         19.47584        48.03987        -0.03710
C         20.73689        50.00926        -0.95026
C         19.53323        50.87258        -0.83563
C         20.64562        52.66355        -2.17755
C         19.47179        52.11994        -1.62056
C         20.60551        53.92584        -2.79074
C         19.40274        54.71778        -2.73829
C         20.63394        56.79572        -3.45163
C         19.41710        56.09158        -3.03916
C         20.82288        58.20559        -3.13780
C         22.78937         5.41340        -7.17848
C         21.66320         5.78915        -6.44557
C         23.01163         7.44355        -5.19501
C         21.73997         6.84129        -5.50683
C         23.01870         8.48557        -4.20788
C         21.77997         9.11629        -3.79727
C         23.07826        10.75793        -2.43887
C         21.80303        10.25733        -3.00441
C         23.10201        12.12790        -1.82882
C         21.86931        12.94539        -1.98123
C         23.17301        14.86731        -0.88149
C         21.88576        14.31930        -1.38417
C         23.17980        16.16157        -0.27600
C         21.95561        16.79054         0.07044
C         23.18270        18.82832         0.75320
C         21.96074        18.11292         0.52274
C         23.16642        20.22279         1.23118
C         21.96958        20.89881         1.40272
C         23.20823        23.05462         2.03510
C         21.90756        22.28915         1.92180
C         23.17663        24.52969         1.93627
C         21.93052        25.23206         1.76336
C         23.21414        27.33230         1.45623
C         21.92141        26.61360         1.55628
C         23.23541        28.84092         1.37075
C         21.94447        29.60579         1.31673
C         23.16946        31.63485         2.29584
C         21.92960        31.04929         1.64088
C         23.19215        33.14405         2.18234
C         21.93200        33.88218         2.04213
C         23.12734        36.01066         1.66589
C         21.93973        35.28851         2.03449
C         23.12897        37.39829         1.64809
C         21.85634        38.14612         1.68541
C         23.13226        40.30780         1.77603
C         21.88329        39.62730         1.74606
C         23.12678        41.72299         1.53099
C         21.88915        42.39010         1.31631
C         22.99848        44.25468         0.03359
C         21.94062        43.88252         1.07155
C         22.94490        45.63771        -0.44987
C         21.84872        46.49642        -0.13039
C         23.03456        48.37908        -1.23616
C         21.85740        47.83326        -0.62393
C         23.06297        49.72960        -1.67927
C         21.89083        50.53906        -1.51806
C         23.10531        52.36060        -2.77201
C         21.97990        52.01869        -1.82468
C         23.08441        53.68946        -3.43371
C         21.81359        54.47350        -3.45290
C         23.20624        56.60932        -3.49795
C         21.90271        55.95658        -3.67392
C         23.27580        58.00249        -3.40774
C         22.07373        58.80364        -3.23275
C         23.45715        60.82172        -3.06128
C         22.21525        60.21993        -3.04715
C         23.98435         6.10622        -7.01766
C         25.34842         7.89987        -6.09252
C         24.14566         7.11310        -6.02907
C         25.80550         8.65145        -5.01386
C         24.21611         8.98403        -3.65165
C         25.57512        10.93258        -2.92731
C         24.35715        10.21084        -2.95194
C         25.70407        12.11798        -2.02504
C         24.41995        12.79180        -1.55438
C         25.61553        14.91658        -0.98654
C         24.38409        14.22350        -1.15621
C         25.63366        16.22556        -0.43910
C         24.40708        16.84401        -0.02430
C         25.71032        18.74929         0.99830
C         24.39735        18.15202         0.53966
C         25.64226        20.24912         1.17436
C         24.44761        20.92128         1.41401
C         25.65229        23.06734         1.87190
C         24.46332        22.33776         1.72882
C         25.61717        24.47034         2.09675
C         24.41043        25.21745         2.01364
C         25.63973        27.39753         2.00698
C         24.46224        26.66581         1.89598
C         25.70133        28.84252         1.83219
C         24.47644        29.57606         1.71170
C         25.69666        31.68807         1.80664
C         24.46434        30.96464         1.86409
C         25.71894        33.11051         1.70325
C         24.46495        33.86480         1.90662
C         25.62519        35.95905         1.02426
C         24.35579        35.24383         1.35316
C         25.57122        37.46265         1.02003
C         24.33927        38.13341         1.49238
C         25.65217        40.07925         2.02810
C         24.35979        39.50937         1.75459
C         25.59286        42.13685         1.82864
C         24.36164        42.47156         1.27909
C         25.65147        44.18544        -0.03039
C         24.35981        43.51656         0.23884
C         25.75270        45.18077        -1.02330
C         23.93314        46.14799        -1.29920
C         25.42074        48.05827        -1.94456
C         24.15904        47.53281        -1.49067
C         25.39837        49.41359        -2.40002
C         24.23971        50.22464        -2.32138
C         25.40599        52.05911        -3.65261
C         24.20414        51.55905        -2.91925
C         25.58828        53.60371        -3.81750
C         24.37778        54.41525        -3.53625
C         25.69305        56.48308        -3.52985
C         24.40992        55.80081        -3.50398
C         25.74440        57.87610        -3.46523
C         24.56302        58.66085        -3.36649
C         24.62897        60.05533        -3.21843
C         26.58803         9.83225        -4.99331
C         27.56732        11.84376        -4.10998
C         26.58605        10.78592        -3.95704
C         27.84971        12.83571        -3.20483
C         27.05669        12.84848        -1.89148
C         28.00388        15.01480        -1.20523
C         26.86768        14.27278        -1.33832
C         28.01828        16.49040        -1.14564
C         26.83754        17.02493        -0.43035
C         28.10045        19.02952         0.09034
C         26.88090        18.28374         0.14440
C         28.19850        20.19706         1.00407
C         26.92546        20.97034         1.19260
C         28.23614        23.02998         2.15357
C         26.96284        22.41524         1.60811
C         28.14648        24.49138         2.40338
C         26.85520        25.18317         2.41632
C         28.18872        27.38867         2.31650
C         26.87709        26.71072         2.44455
C         28.17511        28.89023         2.45353
C         26.91477        29.54957         1.94544
C         28.16918        31.69038         1.79285
C         26.93162        30.96418         1.80827
C         28.14616        33.08476         1.65785
C         26.92040        33.82098         1.56272
C         28.07843        35.99909         1.27946
C         26.91595        35.27209         1.31993
C         28.13387        37.44812         0.90826
C         26.85939        38.23898         0.97097
C         28.09007        40.39227         1.59114
C         26.88450        39.59379         1.59000
C         28.07496        41.80012         1.52677
C         26.87593        42.58948         1.38304
C         28.10508        44.38017         0.17309
C         26.87215        43.77219         0.58808
C         28.07156        45.78436        -0.39519
C         26.79213        46.12316        -1.10864
C         27.94590        48.02446        -2.17299
C         26.69136        47.37047        -1.77117
C         27.79663        49.13379        -2.99659
C         26.59035        49.92330        -3.04723
C         28.52585        52.35919        -3.70409
C         26.56635        51.16346        -3.66586
C         28.18519        53.70733        -3.53517
C         26.90555        54.30973        -3.69848
C         26.87829        55.70269        -3.55826
C         28.92897        13.75312        -3.53937
C         30.58727        15.57870        -2.73832
C         29.58758        14.54633        -2.62978
C         30.57952        16.73740        -1.95441
C         29.26292        17.34536        -1.43623
C         30.23331        19.64166        -0.85419
C         29.20905        18.65466        -0.69459
C         30.41432        20.75435        -0.03281
C         29.48456        20.99023         1.08665
C         30.86512        23.05688         1.66544
C         29.55964        22.32661         1.80686
C         31.11824        24.22443         2.35419
C         29.23098        25.25401         2.77617
C         30.68142        27.27513         2.09965
C         29.35222        26.66855         2.48963
C         30.69969        28.78543         1.92685
C         29.45490        29.58918         2.07343
C         30.68117        31.70534         1.76769
C         29.44987        30.96735         1.88500
C         30.68811        33.11264         1.67196
C         29.40080        33.84461         1.79420
C         30.60506        36.09277         1.46102
C         29.34791        35.33766         1.61783
C         30.63051        37.45435         1.44517
C         29.42164        38.22191         1.02566
C         30.67776        40.32005         1.74670
C         29.40278        39.73602         1.17630
C         30.50014        41.53868         0.87354
C         29.40990        42.52554         1.32635
C         30.47398        44.19664        -0.30445
C         29.31841        43.72951         0.39401
C         30.32993        45.24423        -1.22075
C         29.24633        46.14262        -1.27872
C         30.52773        48.17650        -1.96893
C         29.26560        47.40562        -1.92190
C         30.55675        49.61276        -2.16807
C         29.73197        50.32283        -3.01898
C         29.64170        51.73736        -3.12130
C         31.87644        17.35574        -1.81257
C         33.36256        19.34786        -1.40202
C         32.13465        18.71937        -1.72367
C         33.43314        20.72923        -1.11739
C         31.50141        21.66610        -0.24095
C         33.23574        23.18288         0.80612
C         31.84384        22.65292         0.67203
C         33.41197        24.50820         1.60986
C         32.16472        25.17151         2.04445
C         33.25565        27.37080         2.11267
C         32.00892        26.54695         2.10557
C         33.19417        28.84598         1.93871
C         32.00206        29.50733         1.92802
C         33.18045        31.67267         1.36845
C         31.99296        31.01972         2.06366
C         33.13308        33.16692         1.17071
C         31.86900        33.85513         1.48018
C         33.14907        36.05679         1.12838
C         31.83680        35.29757         1.27127
C         33.16276        37.49019         1.43923
C         31.89074        38.14040         1.91976
C         33.12162        40.30653         1.51578
C         31.86581        39.62282         1.69982
C         33.03319        41.74758         1.20899
C         31.80657        42.19322         0.44763
C         33.08576        44.38264        -0.13117
C         31.81583        43.55116        -0.18123
C         33.10296        45.78137        -0.51952
C         32.15792        46.33948        -1.36600
C         31.77193        47.69925        -1.49698
C         34.51711        21.45262        -0.61645
C         35.55708        23.55513        -0.00359
C         34.41471        22.75599        -0.01633
C         35.64127        24.85178         0.59390
C         34.60414        25.32309         1.39965
C         35.98224        27.41949         1.97838
C         34.62917        26.67864         1.96124
C         35.75810        28.92390         1.92176
C         34.47258        29.52981         1.44900
C         35.67198        31.78704         1.49308
C         34.48356        31.03440         1.56149
C         35.65650        33.20747         1.30232
C         34.41313        33.91818         1.19864
C         35.64647        36.07583         0.89673
C         34.40398        35.30238         1.20695
C         35.61587        37.51931         1.32504
C         34.37938        38.19096         1.49556
C         35.59090        40.38801         1.34944
C         34.34528        39.65108         1.53658
C         35.56668        41.76522         1.11274
C         34.31624        42.51859         1.02190
C         34.25028        43.82131         0.33091
C         36.78819        25.69291         0.33557
C         38.16533        27.67287         0.55311
C         36.97882        26.92499         0.91304
C         38.64041        28.77126         1.23635
C         36.85309        29.72946         2.04257
C         38.18028        31.78346         1.44763
C         36.94246        31.11745         1.66265
C         38.14893        33.21774         1.35405
C         36.90171        33.93048         1.31611
C         38.11300        36.09584         1.27755
C         36.90653        35.34241         1.23413
C         38.07380        37.51762         1.27253
C         36.84964        38.24477         1.32442
C         36.81754        39.66013         1.34139
C         39.61495        29.75282         0.85274
C         40.63590        31.92834         1.00271
C         39.45721        31.10478         1.16690
C         40.61297        33.28116         1.12579
C         39.36111        33.98165         1.27106
C         39.34054        35.37827         1.28723
O         23.44520        43.23325        -0.87328
O         32.96742        32.21070         0.02995
O         28.93778        37.74382        -0.27345
O         13.99583        30.42206         0.60196
O         25.62810        41.19960         2.87985
O         27.63742        51.55911        -4.45481
O         31.02977        19.54589        -1.99478
O         28.21484        17.17626        -2.44754
O         22.91575        10.96245        -0.98072
O         27.01495        22.07867         0.17557
O         22.23616        53.70968        -4.64988
O         17.46304        48.66190         1.29610
O         23.40706        28.02880         0.16390
O         29.18402        19.92192         2.04534
O         17.56622        31.02966         4.08699
O         22.04139        30.64294         0.25924
O         17.00157        33.33577         1.12043
O         21.98102        14.12365        -2.86904
O         17.64217        28.71326         3.40697
O         25.28171        52.72579        -4.94975
O         15.89443        37.99957         3.38704
O         12.07327        42.24592         0.38758
O         18.60517        24.66747         0.31044
O         13.66796        22.46642         3.75685
O         29.22824        14.37378        -1.27448
O         18.72885        39.55528         0.28423
O         24.74635        45.25012        -1.99908
O         31.99519        42.32078        -0.98588
O         26.04842        38.09341        -0.22939
O         13.27455        28.28018         3.67633
O         32.28454        21.50357        -1.38259
O         19.10755        21.97090         0.22596
O         18.86467        35.86729         3.93706
O         33.62853        23.20387         2.22114
O         24.82495        35.33236        -0.03184
O         30.29526        24.61610         3.40740
O         30.55933        27.88087         0.74711
O         12.08221        37.82976         1.70921
O         20.17911        32.58992         0.82908
O         15.60428        19.95980         0.08196
O         20.55775        28.11088         0.04546
O         32.37779        35.67546        -0.08046
O         38.04078        29.12008         2.46281
O         20.72780        19.90872        -0.48456
O         19.03384        51.08300         0.54098
O         26.70078        25.95947         3.68954
O         20.09821        15.85982         1.34560
O         29.81621        40.56576        -0.06379
O         31.38727        45.42833        -2.11776
O         20.96325        37.60411         0.66504
O         10.79113        28.90797        -0.00410
O         21.12664        56.42464        -4.80859
O         29.34554        34.72919         2.98145
O         25.36124         8.19252        -3.75126
O         17.16460        21.22759         3.16939
O         28.84725        49.56149        -3.80296
O         34.03586        26.89013         3.28369
O         22.52448        22.48815         3.24086
O         25.20537        11.93119        -0.66182
O         23.99399        33.75659         3.29911
O         15.73566        35.70656         0.32378
O         28.96918        22.24524         3.13418
O         33.49343        42.59811         2.29295
O         11.54535        30.67612         3.01194
O         15.91005        24.83470         4.12692
H         15.13294        24.46329         4.60068
O         35.64153        36.15247        -0.59639
H         34.71752        36.33232        -0.87973
O         22.35889        52.66373        -0.55182
H         21.68112        52.41677         0.11495
O         32.26063        31.27623         3.48578
H         31.47793        30.98830         4.00250
O         12.98185        35.14691        -0.99915
H         13.90662        34.82769        -0.89978
O         19.30633        13.73602        -3.48882
H         20.19859        14.14098        -3.62222
O         14.56466        17.45139         2.50072
H         13.78280        16.89585         2.70454
O         16.00012        28.85435         0.26075
H         15.62348        29.67332        -0.13372
O         25.97371        18.18843         2.33205
H         25.23040        18.44210         2.91936
O         18.06114        33.40609         4.62327
H         17.73436        32.55513         5.00641
O         18.86326        30.19404         0.37954
H         19.60184        30.66782        -0.06687
O         28.09262        29.06875         3.92819
H         27.39472        28.46446         4.26514
O          9.22021        31.37298         2.19405
H          8.27029        31.15034         2.28282
O         36.59982        27.06509         3.23344
H         35.90169        27.11749         3.92383
O         34.41878        29.27080        -0.00982
H         33.79779        29.92114        -0.40800
O         31.88916        37.91754         3.38296
H         32.56506        38.51235         3.77324
O         27.82676        12.07568        -0.95095
H         27.22587        11.85552        -0.20476
O         11.55570        25.08734         3.98218
H         10.74387        25.60950         4.15273
O         29.84546        43.03741         2.61242
H         29.21691        43.73477         2.89447
O         11.53873        31.14764        -0.65792
H         12.38769        30.66026        -0.56736
O         22.42874        44.50773         2.30672
H         21.73538        44.40832         2.99261
O         23.01685        31.31915         3.70751
H         23.56873        31.96743         4.20392
O         28.18070        46.66050         0.78883
H         28.19116        47.58638         0.46332
O          9.83005        35.00976        -2.90820
H         10.78815        35.19425        -2.78889
H          5.43407        30.89552        -1.16023
H          5.62561        33.23916        -1.90578
H          7.50768        26.76557         0.70960
H          6.39382        28.91966        -0.10243
H          6.95972        35.27010        -2.21670
H          8.48255        37.36858        -2.71727
H          9.99052        22.59063         1.16386
H          8.74015        24.66011         1.01758
H          9.60929        39.59936        -2.45784
H         11.06380        41.46587        -2.73571
H         12.23584        18.49518         0.80746
H         11.14614        20.51347         1.23279
H         11.99684        44.12203        -2.36102
H         12.68208        46.23558        -1.54812
H         14.70952        14.30721        -0.99651
H         13.44464        16.25083        -0.02202
H         13.70431        48.42705        -1.23540
H         14.85253        50.58200        -1.23018
H         17.14346        10.41967        -2.73545
H         15.93471        12.33349        -1.77556
H         16.04834        52.64910        -1.63113
H         17.26967        54.67673        -2.28355
H         19.58567         6.85208        -5.19090
H         18.34580         8.63113        -3.97208
H         18.50966        56.68421        -2.84844
H         19.95707        58.79821        -2.80600
H         22.71774         4.60782        -7.92211
H         20.69396         5.30471        -6.63118
H         23.53905        61.91050        -2.93615
H         21.30754        60.82540        -2.91233
H         24.84420         5.85840        -7.65649
H         25.86431         7.96654        -7.06240
H         26.72217        58.38061        -3.46407
H         25.61069        60.55000        -3.20592
H         27.21383        10.04681        -5.87342
H         28.18711        11.79070        -5.01966
H         28.98177        54.37244        -3.16637
H         27.84034        56.23141        -3.47830
H         29.23207        13.79347        -4.59691
H         31.47657        15.38861        -3.36137
H         31.37895        50.16101        -1.68320
H         30.34025        52.35188        -2.53667
H         32.74256        16.67740        -1.86253
H         34.24596        18.72104        -1.21828
H         33.85120        46.43265        -0.04311
H         32.52037        48.45865        -1.22004
H         35.52321        21.00954        -0.67702
H         36.43604        23.20185        -0.56385
H         36.50409        42.27687         0.84556
H         35.18314        44.40263         0.26456
H         37.55891        25.29863        -0.34493
H         38.67743        27.37448        -0.37506
H         39.02308        38.07398         1.27075
H         37.76389        40.21763         1.27401
H         40.53767        29.44322         0.33592
H         41.59068        31.41299         0.82153
H         41.54005        33.86713         1.04884
H         40.29055        35.93225         1.25581
