         252
 CSIRO Nanostructure Databank - Neutral Graphene Oxide Data Set
C         30.83437        31.74168         2.22319
C         30.97839        32.95557         2.51598
C         30.60245        35.91796         1.29773
C         30.68825        37.14397         0.99210
C         30.44009        40.29509         0.37408
C         30.34654        41.49202         0.08878
C         32.70234        29.32844         0.06991
C         31.69441        29.75754         0.68694
C         33.10761        31.25940         1.77142
C         31.74756        30.83636         1.61475
C         33.24014        33.37600         2.25264
C         31.96482        33.95033         2.29866
C         33.06755        36.02304         1.38289
C         31.84148        35.43331         2.10647
C         32.98922        37.41552         0.89822
C         31.70975        38.06455         0.75566
C         32.81764        40.25277         0.03086
C         31.66405        39.55909         0.83203
C         32.77528        41.57845        -0.29512
C         31.51450        42.42053         0.23126
C         32.64778        44.32120        -0.72937
C         31.59642        43.74144        -0.44652
C         35.30692        27.91572        -1.13005
C         35.21601        29.16267        -0.46374
C         34.05484        29.76463         0.07566
C         35.43051        31.68055         0.91273
C         34.19670        30.89959         0.94416
C         35.45478        33.11767         1.11770
C         34.34874        33.90988         1.53414
C         35.33968        35.94046         0.35958
C         34.21927        35.30282         1.15624
C         35.46995        37.41686         0.78382
C         34.14319        38.12598         0.59463
C         35.32561        40.15493        -0.46140
C         34.04763        39.43235        -0.10344
C         35.30166        41.59521        -0.91943
C         33.93303        42.26929        -0.97227
C         35.21359        44.54798        -1.27235
C         33.93184        43.79196        -1.18905
C         35.33239        45.89129        -0.71151
C         37.66516        27.59710        -0.81853
C         36.36240        27.24390        -1.22886
C         37.71024        28.91933        -0.33335
C         36.51863        29.69787        -0.13414
C         37.87931        31.69770         0.46357
C         36.58899        31.01811         0.43404
C         37.89321        33.09827         0.56649
C         36.66287        33.83781         0.70225
C         37.86644        35.91074        -0.05765
C         36.65639        35.21151         0.49246
C         37.86606        37.41514         0.04128
C         36.65955        38.08966         0.14776
C         37.84099        40.33750        -0.18629
C         36.59978        39.56502         0.03824
C         37.78120        41.74600        -0.67234
C         36.57977        42.37888        -0.89014
C         37.76877        44.59256        -0.56466
C         36.63417        43.85298        -1.33414
C         37.57338        45.92041         0.17473
C         36.15092        46.27564         0.14305
C         39.99164        24.69903        -1.31824
C         38.94965        25.35198        -1.24726
C         40.15274        27.39073        -0.89829
C         38.82145        26.68520        -0.54775
C         40.26093        28.77233        -0.28029
C         39.01500        29.44298         0.26410
C         40.32565        31.59332         0.07669
C         39.08027        30.95599         0.23290
C         40.44325        33.04537         0.32157
C         39.17216        33.83165         0.55929
C         40.37270        35.95999         0.10745
C         39.18712        35.27785         0.26114
C         40.35506        37.41728        -0.13586
C         39.10466        38.09776        -0.16397
C         40.33660        40.29583        -0.73850
C         39.07552        39.55222        -0.46098
C         40.40085        41.82840        -0.81849
C         39.04652        42.47220        -0.55975
C         40.14560        44.46826         0.36608
C         39.00098        43.81063        -0.27868
C         39.81282        45.51674         1.20285
C         38.48496        46.27180         1.32455
C         39.97355        48.34405         0.99491
C         38.96146        47.70508         1.28904
C         42.62729        24.59955        -1.32894
C         41.30608        24.87177        -0.65879
C         42.67504        27.25117        -0.43171
C         41.36865        26.54022        -0.49882
C         42.70232        28.72067        -0.91029
C         41.46938        29.44832        -0.35259
C         42.75662        31.57502        -0.68820
C         41.50024        30.87159        -0.22223
C         42.78549        33.06774        -0.44478
C         41.66332        33.76705        -0.11925
C         42.81383        35.93051        -0.22435
C         41.65022        35.23573        -0.03014
C         42.84294        37.39200         0.12378
C         41.57083        38.10556        -0.29247
C         42.88521        40.34614        -0.39055
C         41.61648        39.53621        -0.63982
C         42.81111        41.77243        -0.02635
C         41.57102        42.49438        -0.09097
C         42.75503        44.50117         0.88874
C         41.47100        43.82348         0.33299
C         42.78370        46.01830         0.66781
C         41.71335        46.76566         1.17018
C         42.41608        48.67673         0.04438
C         41.37771        48.10852         0.80823
C         43.70773        25.13966        -1.06178
C         45.22374        27.12221        -0.04609
C         43.96658        26.43338        -0.42073
C         45.19550        28.65207         0.14564
C         44.12627        29.44037        -0.63509
C         45.28679        31.63137        -0.11776
C         43.96732        30.86705        -0.03458
C         45.31781        33.02607        -0.30988
C         44.08344        33.74838        -0.80577
C         45.37469        35.95415        -0.31613
C         44.07760        35.27854        -0.70264
C         45.39569        37.39176        -0.18741
C         44.08671        38.12250        -0.40832
C         45.37044        40.30359        -0.11208
C         44.08033        39.56630         0.13901
C         45.29622        41.70971         0.08079
C         44.05787        42.41781         0.25589
C         45.17194        44.61717         0.10025
C         44.03627        43.85119         0.38837
C         45.05788        46.01540        -0.28807
C         43.81249        46.69046        -0.05707
C         43.48239        48.05027        -0.23111
C         47.63671        27.29234         0.18702
C         46.62399        26.71500        -0.22178
C         47.83098        28.74447         0.27699
C         46.46537        29.43726         0.36133
C         47.68565        31.64975         0.36620
C         46.48275        30.92974         0.17745
C         47.71806        33.04907         0.16949
C         46.53712        33.75364        -0.19076
C         47.84764        35.93055        -0.46377
C         46.54700        35.21424        -0.29949
C         47.86930        37.46120        -0.65964
C         46.57750        38.13350        -0.21492
C         47.85830        40.28728        -0.34254
C         46.56690        39.57014        -0.20400
C         47.83908        41.77925        -0.13300
C         46.55109        42.43775         0.25048
C         47.74990        44.67134        -0.29839
C         46.50649        43.97857         0.18123
C         47.38002        45.89940        -0.77726
C         46.26171        46.52799        -0.75844
C         50.27234        29.00207         1.32327
C         49.01854        29.49747         0.74286
C         49.96446        31.76124         1.62423
C         48.83192        30.97176         1.06431
C         50.20278        33.09333         0.95881
C         49.04723        33.72698         0.21102
C         50.40604        35.94265         0.02002
C         49.11516        35.18499        -0.17841
C         50.35266        37.43242         0.06173
C         49.13885        38.15642        -0.14467
C         50.34372        40.32440         0.08085
C         49.13941        39.56145        -0.11565
C         50.38081        41.76127         0.07297
C         49.08688        42.55011         0.25572
C         50.34299        44.57905        -0.02339
C         49.04731        43.93197        -0.52125
C         51.19546        29.61842         1.85927
C         52.44435        31.86393         2.19164
C         51.34511        30.93925         2.50707
C         52.36292        33.09920         1.96437
C         51.43245        33.87988         1.25802
C         52.64025        36.13943         1.13812
C         51.64236        35.18165         0.64247
C         52.61111        37.31775         0.73647
C         51.53230        38.17150         0.35011
C         52.68122        40.42836         0.39410
C         51.56128        39.57722         0.28239
C         52.74899        41.68123         0.32932
C         51.59695        42.49278         0.18824
C         51.38792        43.91321         0.08210
O         40.04771        33.43793         1.68060
O         40.80516        46.08424         2.01822
O         33.40876        32.10928         2.85094
O         46.63365        43.25434         1.44262
O         34.50887        41.66258        -2.15302
O         51.45245        35.32471        -0.78324
O         44.48475        26.38536         0.94440
O         42.50687        28.74624        -2.30864
O         37.71240        35.75393        -1.61589
O         37.26477        40.24772         1.17556
O         44.05376        35.34488        -2.21003
O         45.60008        29.03663         1.49483
O         38.15657        45.89769        -1.12830
O         44.16892        33.86489        -2.29241
O         42.48669        40.00177        -1.73294
O         34.66638        39.30211        -1.43603
O         47.86981        41.24582        -1.47228
O         50.05519        32.94340        -0.50603
O         48.74687        29.32082        -0.67354
O         41.89407        26.96935         0.78132
O         48.62545        35.31248        -1.55688
O         39.51700        39.80214        -1.85992
O         34.43481        44.27641        -2.45177
O         48.82897        31.49045         2.47421
O         38.82401        26.40756         0.84918
H         38.00738        25.92144         1.08431
O         37.81730        45.94683         2.53806
H         38.34764        46.28426         3.28925
O         49.02818        42.80870         1.66451
H         49.76033        43.41913         1.89854
O         37.88719        34.35078        -1.92869
H         38.57292        34.37851        -2.64073
O         40.11905        27.62314        -2.31065
H         41.00408        28.03702        -2.56899
O         31.73654        42.61755         1.62300
H         31.04892        43.22388         1.97105
O         31.74895        36.03281         3.39275
H         31.02412        35.60238         3.89221
O         41.28282        24.31110         0.60853
H         41.85169        24.85020         1.20238
O         35.75099        37.38735         2.21511
H         35.95658        38.30063         2.50858
O         44.76473        29.58086        -1.90953
H         44.09744        29.25592        -2.58409
O         42.90179        37.39040         1.58711
H         42.11463        36.90698         1.91789
O         40.67317        42.13532        -2.21205
H         40.21675        41.45600        -2.75900
O         47.87601        37.69550        -2.08894
H         48.38148        36.95781        -2.50459
O         31.87670        39.88931         2.20285
H         31.80047        40.87276         2.29288
O         43.60638        30.79506         1.35800
H         44.27857        30.23633         1.82400
O         42.73084        31.42661        -2.12029
H         42.60460        30.45476        -2.35916
O         43.93197        39.59730         1.57713
H         44.59502        39.00018         1.98119
O         51.01308        30.94932         3.83837
H         50.08485        30.64177         3.93915
O         37.01645        43.87296        -2.71053
H         36.21195        43.70747        -3.25240
O         49.17616        43.67418        -1.89931
H         49.02498        44.49716        -2.40805
O         38.99492        29.11530         1.69096
H         38.29218        29.65194         2.11533
O         34.95866        35.87441        -1.03291
H         35.77883        35.90044        -1.58259
O         44.01039        38.18262        -1.84424
H         44.18247        37.29280        -2.22509
O         42.75908        44.24700         2.31861
H         42.01724        44.76321         2.71078
