         252
 CSIRO Nanostructure Databank - Neutral Graphene Oxide Data Set
C         30.53325        32.08282         1.31453
C         30.48559        33.24283         0.85829
C         30.27333        36.03903        -0.99432
C         30.40802        37.27485        -1.00027
C         30.49058        40.41448        -1.42189
C         30.40448        41.63755        -1.59970
C         32.52670        29.03443         0.76369
C         31.54097        29.67443         1.18518
C         32.83486        31.60242         1.46967
C         31.48797        31.05637         1.50352
C         32.86116        33.66738         0.64530
C         31.50899        33.97530         0.10748
C         32.73356        35.93775        -0.91367
C         31.44550        35.16425        -0.86260
C         32.74937        37.31210        -0.88038
C         31.53732        38.14741        -0.99949
C         32.81196        40.30898        -1.06521
C         31.57133        39.51789        -1.14709
C         32.84262        41.67017        -1.25995
C         31.62893        42.48709        -1.87895
C         32.71471        44.38233        -0.72345
C         31.72620        43.82481        -1.20769
C         35.26040        27.34551         0.94087
C         35.13719        28.77473         0.58858
C         33.86297        29.56726         0.50294
C         35.20730        31.73862         0.60121
C         33.95521        31.01188         0.88282
C         35.24245        33.14117         0.21771
C         34.02366        33.92571        -0.01692
C         35.26960        35.91653        -0.71116
C         34.01955        35.10588        -1.00282
C         35.28098        37.26802        -0.66111
C         34.01171        38.04219        -0.59066
C         35.33583        40.23702        -0.73812
C         34.03758        39.56323        -0.66243
C         35.35865        41.69662        -0.65955
C         34.07386        42.44146        -0.87997
C         35.18677        44.49939         0.04128
C         33.88929        43.76219        -0.03000
C         35.58574        45.76643        -0.34763
C         37.71242        27.31437         1.11370
C         36.36806        26.85461         1.23070
C         37.64613        28.75232         0.70239
C         36.38955        29.54912         1.06317
C         37.67872        31.63658         0.39392
C         36.41764        30.99373         0.58480
C         37.70278        33.04229         0.13074
C         36.48530        33.74240        -0.08325
C         37.77847        35.88500        -0.37159
C         36.54900        35.09945        -0.79668
C         37.78460        37.26132        -0.37117
C         36.57733        38.04036        -0.81653
C         37.74579        40.17652         0.16887
C         36.50441        39.45752        -0.26567
C         37.83675        41.68477        -0.04173
C         36.46528        42.29958         0.16864
C         37.63860        44.51106         0.91755
C         36.36252        43.74973         0.56835
C         37.58086        46.06378         0.85989
C         36.72212        46.35995        -0.37007
C         40.17100        24.58756         1.42527
C         39.12489        25.26130         1.39365
C         40.20936        27.32816         0.91095
C         38.91167        26.64611         1.14198
C         40.20773        28.68787         0.65122
C         38.95305        29.45461         0.48644
C         40.15939        31.62278         0.53358
C         38.94084        30.93863         0.50813
C         40.20578        33.02530         0.31176
C         38.97513        33.74236         0.08515
C         40.26360        35.83316        -0.33846
C         38.97951        35.13779        -0.12025
C         40.29610        37.32035        -0.51726
C         39.04364        38.00128        -0.09079
C         40.31068        40.28582         0.04515
C         39.07131        39.46315         0.21822
C         40.28597        41.61773         0.31554
C         38.98985        42.22624         0.86381
C         40.25415        44.54981         0.93580
C         38.95166        43.77629         0.98318
C         40.20263        46.04120         0.82205
C         38.94190        46.70123         0.84778
C         40.15513        48.82312         1.03697
C         39.13804        48.07408         0.95296
C         42.75743        24.55739         1.22468
C         41.46962        25.14746         1.21680
C         42.71383        27.27583         0.78245
C         41.47019        26.56673         0.96792
C         42.74164        28.69784         0.62738
C         41.46230        29.46393         0.33378
C         42.72106        31.62458         0.83352
C         41.39455        30.85915         1.00418
C         42.70182        33.05575         0.46430
C         41.48270        33.70284         0.29586
C         42.76156        35.93473         0.31717
C         41.48124        35.17276         0.19255
C         42.85375        37.35945        -0.15664
C         41.59905        38.09802        -0.49015
C         42.84995        40.24241         0.07988
C         41.57684        39.63693        -0.50874
C         42.78922        41.67797         0.56576
C         41.53990        42.43699         0.06423
C         42.80618        44.59160         0.44777
C         41.54512        43.82656         0.68612
C         42.72141        46.08029         0.51915
C         41.42525        46.77900         0.80820
C         42.74157        48.74660         1.15240
C         41.42266        48.20860         1.01810
C         43.81271        25.20385         1.03017
C         45.18864        27.27111         0.53905
C         43.99072        26.58864         0.80361
C         45.19296        28.69328         0.34885
C         43.95526        29.38474         0.52853
C         45.23928        31.57128         0.21986
C         44.00287        30.86323         0.61781
C         45.24200        33.02184         0.26138
C         43.97192        33.76703         0.38463
C         45.29822        35.89616         0.60056
C         44.00494        35.15041         0.35997
C         45.25592        37.39961         0.35791
C         44.10652        38.09813         0.14360
C         45.30157        40.30509         0.32667
C         44.03920        39.56424         0.18599
C         45.27317        41.77379         0.29364
C         44.06991        42.45875         0.31686
C         45.30525        44.69313         0.10937
C         44.00490        43.91465         0.30655
C         45.25339        45.97370         1.05338
C         44.05405        46.82462         0.72713
C         43.82575        48.15089         1.31201
C         47.51673        27.26887        -0.18495
C         46.50184        26.75614         0.31488
C         47.52003        28.66055        -0.66328
C         46.35371        29.40724        -0.10050
C         47.76852        31.47797        -0.09298
C         46.38548        30.83130        -0.09120
C         47.71243        33.01117        -0.10323
C         46.41790        33.71024         0.02465
C         47.63712        35.96470        -0.58637
C         46.43149        35.19406        -0.12650
C         47.66032        37.50218        -0.48060
C         46.57425        38.11069         0.52394
C         47.76537        40.33679         0.15018
C         46.48610        39.60948         0.30679
C         47.76712        41.77599         0.42290
C         46.55242        42.50241         0.34526
C         47.92577        44.62874         0.10979
C         46.57604        43.89946         0.33046
C         47.66874        46.01028         0.65181
C         46.60374        46.58314         0.86932
C         50.07134        28.82658        -1.26128
C         48.72542        29.40445        -1.23437
C         49.84367        31.65084        -1.52019
C         48.73676        30.89894        -1.14247
C         50.06816        33.00074        -1.07157
C         48.90056        33.77799        -0.57399
C         50.25440        35.83191        -0.46420
C         48.93884        35.24635        -1.00367
C         50.28731        37.25860        -0.03636
C         48.99606        38.07208        -0.00614
C         50.41852        40.29009         0.09180
C         49.05648        39.59116        -0.06325
C         50.34814        41.63605         0.84658
C         49.02390        42.42756         0.81788
C         50.33624        44.32743         1.05106
C         49.07637        43.91223         0.76035
C         51.23241        29.27934        -1.09504
C         52.62817        31.47360        -0.99185
C         51.79258        30.49099        -1.55325
C         52.40023        32.71796        -1.00068
C         51.30841        33.61115        -0.84686
C         53.35046        37.65932        -1.96941
C         51.36097        35.00376        -0.39866
C         52.43793        37.87874        -1.12011
C         51.50449        38.09015        -0.14654
C         52.76434        40.23660         0.58489
C         51.53740        39.34356         0.69878
C         52.71557        41.45525         0.84426
C         51.65921        42.40898         0.92311
C         51.48284        43.74247         1.20182
O         42.47090        37.58365        -1.55690
O         32.92673        32.94857         1.86085
O         46.56618        35.59230        -1.53868
O         50.80208        31.10834        -2.41439
O         39.16920        38.48476         1.30045
O         48.38245        40.11999        -1.23462
O         36.80107        39.69399         1.15508
O         31.45635        33.83350        -1.34550
O         41.08852        44.03886         2.04779
O         35.09220        42.48687        -1.91341
O         38.12039        28.95048        -0.65160
O         41.88870        35.79317         1.49288
O         49.50330        37.50085         1.20370
O         36.67888        34.83936        -2.18386
O         43.59341        31.35605         1.98526
O         38.19806        44.13477         2.20511
O         36.08076        42.66521         1.51010
O         33.87750        38.82815         0.63863
O         48.69973        33.59192         0.86736
O         47.71036        28.82972        -2.08992
O         49.55126        41.73704         2.03615
O         43.48159        46.71715        -0.59338
O         34.60305        29.14515        -0.67131
O         40.24581        36.45624        -1.67817
O         38.22157        41.95138        -1.40535
H         37.45837        41.79379        -2.00297
O         47.38890        37.98836        -1.79172
H         46.73784        37.38094        -2.20973
O         31.84822        42.59460        -3.25410
H         31.18770        43.20038        -3.64697
O         34.09844        34.64278        -2.35451
H         35.07738        34.54216        -2.57362
O         41.60116        40.00830        -1.92257
H         42.16029        39.33880        -2.38518
O         36.74469        38.22588        -2.25863
H         36.81575        37.33053        -2.66458
O         33.49149        43.32689         1.26275
H         33.53884        44.07739         1.88961
O         36.28112        29.57107         2.50967
H         36.97283        30.16198         2.87432
O         41.46664        29.72798        -1.09753
H         41.20344        28.91173        -1.57255
O         41.65628        42.68676        -1.34905
H         41.60129        41.82003        -1.82684
O         42.62764        41.59759         2.00676
H         43.44295        41.22082         2.39830
O         38.82386        41.67124         2.16457
H         38.21860        42.26028         2.67225
O         51.25320        39.11140         2.05423
H         51.94610        38.55048         2.45620
O         45.58568        35.71274         2.02764
H         44.75183        35.83532         2.53102
O         50.87265        40.60937        -1.22649
H         50.08927        40.68311        -1.82010
O         41.17913        30.64999         2.41554
H         42.05573        30.75280         2.85928
O         49.01409        35.30243        -2.43869
H         48.09821        35.28378        -2.79502
O         52.56646        35.34814         0.09339
H         52.64368        36.31129         0.25152
O         36.88304        46.50300         2.02300
H         37.26844        46.03526         2.79574
O         45.11535        45.50245         2.39030
H         45.14790        46.26620         3.00347
O         48.14418        44.66299        -1.29358
H         47.31456        45.00335        -1.70812
O         48.33384        31.06851         1.17876
H         48.80778        31.85274         1.54895
O         47.04960        37.95318         1.87143
H         46.76397        37.06893         2.21170
O         45.40676        45.11624        -1.26984
H         44.63938        45.71292        -1.46702
