         618
 CSIRO Nanostructure Databank - Neutral Graphene Oxide Data Set
C         23.06816        69.91013         1.85480
C         23.13620        71.28341         1.90397
C         21.97353        72.08304         2.12880
C         23.27735        74.14917         2.18408
C         22.05201        73.46729         2.24144
C         25.45045        65.60865         0.69465
C         25.41035        67.01461         0.88709
C         24.25772        67.68984         1.25399
C         25.60261        69.77230         1.86968
C         24.27985        69.07512         1.76008
C         25.67771        71.25021         1.86918
C         24.41888        72.00554         1.53434
C         25.72734        74.08303         1.98593
C         24.48815        73.45525         1.95358
C         27.75346        61.27074         0.07949
C         27.35448        62.55891        -0.23809
C         26.48279        63.47019         0.40046
C         27.86479        65.62940         0.04460
C         26.59825        64.89099         0.30031
C         27.94146        66.97396         0.46749
C         26.69977        67.72993         0.74466
C         28.13195        69.64051         1.75757
C         26.80658        69.11474         1.27094
C         28.14712        71.14951         1.80101
C         26.91050        71.88234         1.87890
C         28.18003        73.98763         2.04610
C         26.96912        73.35299         1.93457
C         30.29778        57.03685        -0.55202
C         30.26889        58.48867        -0.31318
C         29.03108        59.26913        -0.35369
C         30.22990        61.41921        -0.68778
C         28.99069        60.65589        -0.38579
C         30.27598        62.87922        -0.82201
C         29.12912        63.66794        -0.89605
C         30.31393        65.73003        -0.45079
C         29.07782        65.02023        -0.43714
C         30.36101        67.07207         0.00328
C         29.18010        67.70284         0.50449
C         30.51939        69.73858         1.01772
C         29.29353        69.03048         1.01522
C         30.57425        71.08806         1.50387
C         29.38576        71.79676         1.81508
C         30.71273        73.94341         1.89913
C         29.45013        73.22657         2.30734
C         32.85086        52.79328        -0.42051
C         32.79956        54.19767        -0.55096
C         31.56288        54.91359        -0.59675
C         32.76833        57.05789        -1.02341
C         31.48924        56.32938        -0.65713
C         32.80017        58.55951        -0.81221
C         31.56640        59.28915        -0.42090
C         32.71915        61.47803        -0.79685
C         31.44517        60.74222        -0.67900
C         32.70444        62.91672        -1.10848
C         31.52209        63.61392        -0.94099
C         32.68193        65.82491        -1.14524
C         31.51741        65.07049        -0.90420
C         32.65711        67.23427        -0.83220
C         31.57539        67.80793        -0.10075
C         32.91807        69.83405         0.31171
C         31.68735        69.13407         0.41640
C         33.09935        71.13908         0.97437
C         31.87307        71.79362         1.58581
C         33.19712        74.00817         1.71272
C         31.86712        73.27545         1.69856
C         35.40478        48.57907         0.22306
C         35.34325        49.98230         0.00534
C         34.12066        50.68596        -0.13611
C         35.31523        52.84167        -0.26897
C         34.08022        52.09610        -0.27010
C         35.26924        54.25948        -0.30260
C         34.04096        54.92561        -0.45806
C         35.31868        57.16747        -0.58959
C         33.98652        56.38392        -0.42464
C         35.26286        58.54639        -1.11721
C         33.97830        59.22873        -1.02976
C         35.17597        61.41346        -1.55114
C         33.99727        60.71129        -0.96560
C         35.23353        62.88365        -1.35259
C         33.93877        63.61050        -1.48944
C         35.28219        65.75702        -1.33876
C         33.93749        65.12892        -1.56362
C         35.51696        67.07070        -1.60666
C         33.67475        68.13936        -1.21323
C         35.24203        70.04309        -0.70440
C         33.93491        69.33753        -0.53624
C         35.35830        71.38495        -0.08543
C         34.26962        71.97062         0.58091
C         35.45899        74.08990         0.65906
C         34.32350        73.34186         0.95122
C         37.92480        44.55345         1.44781
C         37.89742        45.89589         1.13606
C         36.71015        46.51696         0.66671
C         37.86266        48.66868         0.42622
C         36.62841        47.91879         0.46635
C         37.82189        50.02871         0.02507
C         36.57491        50.71052        -0.11026
C         37.78970        52.80194        -0.50711
C         36.56518        52.12680        -0.28240
C         37.84832        54.25376        -0.38239
C         36.53633        55.03522        -0.23203
C         37.67896        57.03024        -1.44160
C         36.55008        56.43891        -0.64264
C         37.73658        58.53951        -1.41493
C         36.44892        59.20401        -1.39332
C         37.73389        61.35166        -1.45694
C         36.43933        60.64871        -1.70203
C         37.72155        62.79344        -1.11754
C         36.41489        63.51179        -1.14184
C         37.74172        65.65622        -0.64987
C         36.42706        64.95889        -0.84678
C         37.76965        67.12958        -0.72384
C         36.65794        67.82002        -1.11705
C         37.83834        69.97952        -0.61916
C         36.57369        69.30043        -0.98526
C         37.82524        71.41013        -0.48297
C         36.58947        72.09420        -0.20918
C         37.85337        74.19065         0.00397
C         36.62554        73.47529         0.13773
C         40.30942        40.30863         1.93295
C         40.31840        41.73338         1.92265
C         39.13231        42.47798         1.99230
C         40.38669        44.67956         1.87726
C         39.08410        43.96327         2.19113
C         40.38560        46.02128         1.63023
C         39.05983        46.77609         1.57933
C         40.30048        48.73948         0.52548
C         39.11077        48.06984         0.78579
C         40.28763        50.05879        -0.05235
C         39.04393        50.72175        -0.21185
C         40.23577        52.74621        -0.94940
C         39.02743        52.09083        -0.59846
C         40.08587        54.08608        -1.61553
C         39.09451        54.96054        -0.84923
C         40.19049        57.09312        -1.82204
C         39.02578        56.39703        -1.21784
C         40.20092        58.47613        -1.76421
C         38.93850        59.19521        -1.62169
C         40.24209        61.38563        -1.48982
C         38.98476        60.67694        -1.96596
C         40.24387        62.75313        -1.23901
C         38.98621        63.57440        -1.44144
C         40.22912        65.59131        -0.56101
C         39.01917        64.93117        -0.78611
C         40.25257        67.02257        -0.32433
C         38.96811        67.79383        -0.10970
C         40.28182        69.93570        -0.41066
C         39.02690        69.26564        -0.44949
C         40.30716        71.38360        -0.43733
C         39.05100        72.10873        -0.40396
C         40.31163        74.32659        -0.44006
C         39.03922        73.53223        -0.26265
C         42.71404        35.97453         2.32258
C         42.68255        37.38046         2.16234
C         41.48558        38.13490         2.08288
C         42.76668        40.24809         1.94910
C         41.50374        39.55458         1.98810
C         42.78393        41.67665         1.93081
C         41.59399        42.40918         1.92043
C         42.95020        44.60207         1.84000
C         41.63244        43.88866         2.05008
C         42.96117        46.07425         1.56216
C         41.64543        46.81731         1.57937
C         42.79730        48.61799         0.19574
C         41.61738        48.27468         1.10554
C         42.73758        49.97314        -0.42247
C         41.48501        50.75101        -0.38586
C         42.70644        52.77685        -1.28947
C         41.47175        52.07911        -0.87641
C         42.67836        54.08849        -1.73920
C         41.39623        54.80574        -1.95299
C         42.70057        57.08860        -2.14141
C         41.40825        56.31466        -2.12291
C         42.68739        58.50620        -1.71535
C         41.46002        59.22187        -1.70503
C         42.68332        61.30058        -1.12631
C         41.45553        60.62255        -1.44004
C         42.67057        62.67414        -0.81189
C         41.46099        63.43857        -0.86055
C         42.67569        65.50908         0.01646
C         41.45757        64.83060        -0.57960
C         42.71076        66.99875        -0.24769
C         41.46794        67.72279        -0.27520
C         42.74177        69.83731        -0.28294
C         41.48454        69.17099        -0.32889
C         42.81915        71.33290        -0.49655
C         41.51757        72.07657        -0.32096
C         42.73822        74.17437         0.06953
C         41.56740        73.51393        -0.20790
C         45.05665        33.08658         2.18872
C         43.88631        33.81503         2.34312
C         45.19618        35.91006         2.28551
C         43.92562        35.23864         2.33540
C         45.15766        37.34396         2.24871
C         43.94159        38.06287         2.08644
C         45.23160        40.10528         1.70424
C         43.98633        39.48639         1.94004
C         45.31226        41.56642         1.62992
C         44.08851        42.38371         1.85560
C         45.27435        44.41285         0.99898
C         44.13216        43.81331         1.46273
C         45.31204        45.83414         0.68460
C         44.15520        46.63094         0.86498
C         45.27710        48.49847        -0.23845
C         44.12103        47.94447         0.36320
C         45.30213        49.95657        -0.52972
C         44.00481        50.73719        -0.55571
C         45.19269        52.69749        -1.39846
C         43.97659        52.08648        -1.13929
C         45.23235        54.08179        -1.91256
C         43.93076        54.80212        -2.11405
C         45.20993        57.00390        -1.61898
C         43.99098        56.31486        -2.12959
C         45.14892        58.37910        -1.36648
C         43.92259        59.13769        -1.43199
C         45.14985        61.25272        -1.07897
C         43.92771        60.55285        -1.14844
C         45.17124        62.67485        -0.85798
C         43.93848        63.30249        -0.26490
C         45.16030        65.48454        -0.36603
C         43.96917        64.80874        -0.31109
C         45.19695        66.94804        -0.24846
C         43.92322        67.67994        -0.23793
C         45.20723        69.77425         0.26674
C         43.92770        69.11749        -0.19627
C         45.27006        71.27564         0.18310
C         43.96633        71.95942         0.26955
C         45.25938        74.10796         0.58834
C         43.95571        73.44791         0.46218
C         46.28122        33.73914         2.00372
C         47.68979        35.70569         1.70349
C         46.40360        35.14797         2.06410
C         48.10800        36.99908         2.02642
C         46.34801        38.10603         2.37234
C         47.73370        40.00197         1.51161
C         46.47615        39.41339         1.83288
C         47.70662        41.27443         0.67766
C         46.43603        42.11853         0.82348
C         47.72757        44.25078         0.29309
C         46.43761        43.58752         0.57191
C         47.71754        45.62022         0.00625
C         46.48138        46.39107         0.09430
C         47.65757        48.30455        -1.01313
C         46.45607        47.73579        -0.35265
C         47.67970        49.79407        -1.41176
C         46.47185        50.60356        -1.13415
C         47.66170        52.68401        -1.80618
C         46.43255        51.95971        -1.38871
C         47.70309        54.14713        -1.63240
C         46.46995        54.86542        -1.65432
C         47.68707        56.90300        -0.94990
C         46.42231        56.24719        -1.46474
C         47.67563        58.39472        -1.12764
C         46.37581        59.08765        -0.82570
C         47.58531        61.24166        -1.37111
C         46.40255        60.55173        -1.17100
C         47.47625        62.70915        -1.75777
C         46.33498        63.39304        -1.04031
C         47.62078        65.47651        -0.73681
C         46.40730        64.79077        -0.70578
C         47.69172        66.82496        -0.06341
C         46.40241        67.60240        -0.21863
C         47.72118        69.83722        -0.17330
C         46.43908        69.08570        -0.25256
C         47.74261        71.27649         0.24715
C         46.44969        71.96393         0.36687
C         47.69209        74.16122         0.95311
C         46.42812        73.40386         0.59783
C         49.09665        37.85191         1.48476
C         50.16885        40.02920         1.16834
C         48.98288        39.28038         1.44665
C         50.20574        41.42382         0.94110
C         48.95352        42.12725         0.76275
C         50.21901        44.11217         0.04639
C         48.93222        43.46855         0.39664
C         50.21503        45.56127        -0.34334
C         48.93872        46.31404        -0.32564
C         50.21933        48.26830        -1.13782
C         48.94078        47.61914        -0.77806
C         50.22804        49.77588        -1.44233
C         48.95946        50.48939        -1.44368
C         50.22535        52.68293        -1.54144
C         48.98016        51.92268        -1.71211
C         50.18892        54.07079        -1.64393
C         48.94970        54.81555        -1.61747
C         50.13260        56.98470        -1.48140
C         48.95682        56.24216        -1.44239
C         50.12421        58.40614        -1.28613
C         48.85057        59.10344        -1.22337
C         50.07177        61.24222        -1.35129
C         48.85515        60.55760        -1.33039
C         50.10841        62.70007        -1.56880
C         48.80873        63.45841        -1.67845
C         50.03489        65.57351        -1.20547
C         48.83916        64.86944        -1.20659
C         50.04048        66.99423        -0.90491
C         48.93146        67.61628        -0.40588
C         50.19119        69.81267        -0.31032
C         48.97818        69.03440         0.10612
C         50.26969        71.21827         0.25980
C         48.92841        71.93426         0.38550
C         49.94421        74.14256        -0.24224
C         49.03896        73.40353         0.77397
C         51.43242        42.14027         0.89898
C         52.65672        44.26431         0.49345
C         51.48399        43.49893         0.51538
C         52.68085        45.65195         0.12481
C         51.47375        46.32343        -0.25003
C         52.66892        48.43763        -0.58573
C         51.47167        47.67279        -0.61496
C         52.66751        49.84854        -0.87418
C         51.47153        50.54521        -1.20548
C         52.68706        52.68306        -1.18091
C         51.45953        51.95898        -1.30822
C         52.71208        54.12700        -1.33213
C         51.46631        54.80467        -1.74790
C         52.65883        57.04207        -1.33334
C         51.43242        56.32067        -1.72445
C         52.57527        58.41066        -1.10808
C         51.32759        59.11926        -1.14821
C         52.47280        61.31294        -0.79303
C         51.31625        60.56951        -1.07714
C         52.50029        62.75794        -0.93476
C         51.35296        63.44125        -1.28764
C         52.58155        65.63761        -1.14988
C         51.34270        64.91776        -1.64013
C         52.56083        67.04866        -1.06420
C         51.25951        67.77495        -1.36273
C         52.54054        69.90275        -0.88047
C         51.27311        69.19483        -0.85171
C         52.48202        71.37705        -0.93188
C         51.30455        72.06202        -0.45167
C         52.46318        74.21916        -0.55041
C         51.27627        73.45847        -0.43266
C         53.87252        46.40696         0.13429
C         55.09629        48.53269        -0.15286
C         53.88433        47.77972        -0.20034
C         55.12181        49.89690        -0.42624
C         53.89050        50.58285        -0.77102
C         55.18305        52.73842        -1.08820
C         53.88760        51.97635        -0.96468
C         55.05883        54.13860        -0.49655
C         53.85527        54.86529        -1.06266
C         55.08868        56.99802        -0.84839
C         53.88536        56.30644        -1.10690
C         55.09895        58.49718        -1.04365
C         53.78207        59.12877        -0.65026
C         54.98861        61.40256        -0.14685
C         53.71179        60.60583        -0.39929
C         54.97201        62.78869        -0.73903
C         53.78907        63.46779        -0.87718
C         54.99786        65.64594        -0.73170
C         53.78097        64.92871        -0.96587
C         54.99179        67.07301        -0.69849
C         53.74615        67.77144        -0.84465
C         54.97303        69.94192        -0.34747
C         53.72838        69.22293        -0.81091
C         55.02797        71.43132        -0.61780
C         53.81268        72.18263        -0.91700
C         54.94590        74.27266        -0.29137
C         53.73907        73.60934        -0.57535
C         56.33911        50.65130        -0.30033
C         57.57724        52.78256        -0.41166
C         56.38702        52.01309        -0.52920
C         57.56959        54.17416        -0.54736
C         56.35800        54.89902        -0.63248
C         57.53885        57.06331        -0.39398
C         56.32886        56.31408        -0.65063
C         57.48104        58.46958        -0.22819
C         56.29552        59.21155        -0.46546
C         57.48603        61.34347        -0.21414
C         56.27524        60.61851        -0.35701
C         57.49487        62.78224        -0.36369
C         56.29197        63.48213        -0.97272
C         57.43293        65.65764        -0.47183
C         56.24673        64.95743        -0.64966
C         57.42286        67.08457        -0.37047
C         56.21709        67.77854        -0.54897
C         57.45105        69.96414        -0.15628
C         56.26197        69.26773        -0.78913
C         57.40755        71.37465        -0.00069
C         56.18249        72.11245        -0.28226
C         57.36343        74.23646         0.14756
C         56.17260        73.56631        -0.18072
C         58.88244        54.90691        -0.68721
C         59.98308        57.03153        -0.06857
C         58.80695        56.37277        -0.31875
C         60.01326        58.43653         0.34022
C         58.65820        59.19678         0.26423
C         59.93676        61.31385         0.10291
C         58.71149        60.64801         0.05366
C         59.95019        62.75061        -0.17928
C         58.67551        63.47847        -0.27092
C         59.90458        65.66218         0.06419
C         58.75642        64.94748        -0.63330
C         59.79337        67.03771         0.32917
C         58.63374        67.79862        -0.01128
C         59.77421        69.92779         0.67025
C         58.61110        69.22249         0.15478
C         59.74692        71.37968         0.77120
C         58.56534        72.09019         0.39887
C         59.74072        74.22648         0.78670
C         58.56176        73.53342         0.44532
C         61.23308        59.22845         0.24546
C         62.40975        61.38147         0.42875
C         61.19886        60.62182         0.25969
C         62.43465        62.77179         0.45907
C         61.23687        63.51907         0.00883
C         62.28605        65.60175         0.77116
C         61.13518        64.96433         0.30569
C         62.21568        67.00902         1.17840
C         60.91090        67.74325         0.97636
C         62.06957        69.85951         1.64152
C         60.90991        69.21295         1.01406
C         62.03522        71.39556         1.74580
C         60.87261        72.09895         1.20500
C         62.10710        74.21529         1.53774
C         60.92106        73.53553         1.16007
C         63.57920        63.51231         0.85654
C         64.68443        65.64007         1.44659
C         63.54215        64.91081         0.98100
C         64.70014        67.03227         1.58932
C         63.50005        67.79928         1.08616
C         64.52919        69.87470         1.96356
C         63.38403        69.19008         1.64783
C         64.53223        71.35043         1.93949
C         63.30252        72.11028         1.83750
C         64.48718        74.20473         2.33008
C         63.31717        73.52467         1.84331
C         65.80615        67.75869         2.07631
C         66.87027        69.87952         2.77777
C         65.78348        69.17203         2.21945
C         66.85727        71.27874         3.00790
C         65.79133        72.09731         2.40093
C         66.66368        74.10669         3.53544
C         65.62250        73.51729         2.75921
C         67.80928        71.94776         3.78912
C         67.71472        73.33841         4.01637
O         44.65181        54.21678        -3.25314
O         26.65512        68.93375        -0.15758
O         50.33500        48.74535        -2.50694
O         50.25308        44.50794        -1.37651
O         53.57889        59.62068         0.71100
O         44.81869        50.69372         0.66594
O         53.10179        71.87557        -2.15566
O         45.99736        42.61919        -0.48610
O         51.55872        55.58915        -2.99137
O         60.83380        63.12536        -1.35470
O         42.55115        48.75523        -1.24798
O         27.96736        63.09964        -1.38821
O         61.33914        67.22258         2.31208
O         31.08091        58.86141         0.89029
O         37.38336        54.70174         0.92601
O         36.90085        65.22819         0.52851
O         45.06652        42.16226         2.95606
O         33.65412        61.21647         0.36298
O         39.50499        55.96622         0.11706
O         47.44812        48.71860        -2.40162
O         47.06796        69.62060        -1.46589
O         65.56851        71.83088         0.98923
O         33.82671        64.32950        -2.78230
O         25.06685        69.15003         3.07051
O         34.58717        57.02704         0.70214
O         47.38173        37.58311         3.11279
O         42.47064        44.29721         3.18998
O         61.75399        70.52907         2.90700
O         59.19668        58.72744         1.53237
O         34.51574        67.78298        -2.26990
O         48.29524        52.20493        -3.02229
O         35.62967        60.98952        -2.88093
O         42.50708        46.77011         2.77241
O         41.29802        55.42333        -3.28622
O         43.47500        56.89374        -3.37047
O         37.85898        61.79258        -0.06350
O         35.83704        69.99833        -2.03578
O         49.56416        63.16612        -2.90733
O         32.87396        71.12394         2.43364
O         43.65367        72.48304         1.58853
O         47.06721        62.72473        -3.15817
H         47.88598        62.59232        -3.68990
O         49.26426        74.15250        -1.51353
H         49.91096        74.38886        -2.21032
O         49.69572        73.47351         2.06110
H         50.30423        72.69624         2.14332
O         51.41189        65.05150        -3.10129
H         50.72125        64.44189        -3.46793
O         41.79646        49.12885         2.26776
H         42.19848        48.57626         2.97948
O         63.69473        67.98543        -0.35868
H         64.57775        68.39185        -0.49224
O         28.24203        69.18272         3.14560
H         29.01712        69.62686         3.54977
O         40.33239        74.85929        -1.78247
H         40.34524        74.10640        -2.40849
O         38.95737        60.75462        -3.41453
H         39.73696        60.27422        -3.76382
O         55.16169        58.72185        -2.49409
H         55.92189        58.21390        -2.84791
O         46.22790        59.02632         0.65849
H         46.92665        59.59961         1.04208
O         56.54190        63.40899        -2.41833
H         57.35435        63.94763        -2.59191
O         32.92035        56.84954        -2.46883
H         32.06591        57.05727        -2.90238
O         45.23821        69.49876         1.71457
H         44.55297        70.05954         2.14005
O         56.37329        69.45471        -2.22728
H         57.13522        68.92904        -2.54890
O         51.16006        67.85504        -2.81239
H         51.27273        66.93599        -3.16661
O         54.94917        69.81191         1.10969
H         54.10252        70.17804         1.44227
O         42.50972        65.37395         1.47427
H         42.81600        64.46515         1.71204
O         38.77044        47.14099         2.95861
H         38.69833        46.29416         3.46306
O         55.42899        52.91663        -2.51215
H         55.43894        52.03179        -2.93306
O         29.54431        73.13223         3.77839
H         30.41056        72.72327         3.99064
O         47.79360        66.54161         1.39713
H         46.92386        66.19169         1.69140
O         24.38751        72.02473         0.05902
H         25.16836        72.53316        -0.24830
O         38.87548        63.85603        -2.87895
H         39.72967        64.22686        -3.18530
O         47.72722        40.76806        -0.69491
H         47.28958        41.45781        -1.25027
O         47.68062        56.67411         0.51208
H         47.01213        57.30253         0.88446
O         54.81786        53.97823         0.93317
H         54.79107        54.87096         1.33696
O         50.79557        71.04242         1.63178
H         50.24621        70.32085         2.03312
O         43.18686        71.50539        -1.90907
H         42.53863        71.01120        -2.45366
O         55.00500        61.68254         1.29593
H         54.66738        60.86811         1.73749
O         49.06093        68.94298         1.57553
H         48.58217        68.11633         1.84745
O         38.85484        44.24313         3.63561
H         39.66287        43.96198         4.11828
O         37.38830        56.68389        -2.85029
H         36.63629        57.23814        -3.15243
O         47.69115        75.41891         0.26867
H         47.83804        75.23606        -0.68732
O         33.03724        75.36306         1.28818
H         32.81823        75.36582         0.33423
O         39.38803        53.80768        -2.86065
H         39.78399        54.39402        -3.55090
O         59.92319        54.25363         0.04513
H         59.74517        54.37128         1.00066
O         43.93316        62.96515         1.18207
H         43.84195        61.98968         1.25237
O         59.02052        64.97727        -2.08318
H         59.81895        64.40183        -2.21798
O         38.71998        67.76240         1.34329
H         38.54080        66.82867         1.59114
H         23.30809        75.23093         2.38146
H         25.77481        75.16961         2.16026
H         28.21184        75.08452         2.13703
H         30.74068        75.04100         1.99222
H         33.51617        74.05445         2.79262
H         35.48015        75.15776         0.92126
H         37.85846        75.27780         0.17236
H         40.30363        75.21176         0.24451
H         42.75204        75.27477         0.09082
H         45.29388        75.20318         0.69398
H         47.61972        74.40530         2.04574
H         50.10375        75.19950         0.10694
H         52.39943        75.31158        -0.42823
H         54.93629        75.35518        -0.09401
H         57.36026        75.33448         0.21900
H         59.73909        75.32652         0.78045
H         62.10115        75.31490         1.56544
H         64.41552        75.28715         2.51427
H         66.61290        75.17882         3.77310
H         22.09514        69.40826         1.97984
H         21.00409        71.57988         2.25994
H         21.13418        74.04080         2.43415
H         24.53096        65.03733         0.89387
H         23.30043        67.14598         1.27569
H         27.17674        60.70435         0.82616
H         25.66349        63.07747         1.02270
H         29.34437        56.48727        -0.50395
H         28.08507        58.71956        -0.23003
H         31.91199        52.21917        -0.42554
H         30.62991        54.34676        -0.45547
H         34.46954        48.00041         0.25369
H         33.17462        50.12414        -0.12103
H         37.05715        43.91529         1.22082
H         35.80922        45.89943         0.52795
H         39.34238        39.78519         1.95690
H         38.17594        41.93647         2.05089
H         41.76398        35.42184         2.38734
H         40.51756        37.61469         2.12643
H         45.02099        31.98842         2.17035
H         42.91643        33.30404         2.42407
H         47.18427        33.13973         1.81811
H         48.34883        35.07419         1.08870
H         49.95860        37.40619         0.96574
H         51.12741        39.48744         1.18562
H         52.36663        41.61504         1.14853
H         53.60383        43.79399         0.79817
H         54.81835        45.91861         0.41206
H         56.02745        48.02100         0.13313
H         57.24449        50.12461         0.03962
H         58.53816        52.27538        -0.23408
H         59.17757        54.84075        -1.77425
H         60.93480        56.48901        -0.17526
H         62.19760        58.70757         0.15167
H         63.33153        60.82853         0.66423
H         64.49969        62.97040         1.11978
H         65.58628        65.06754         1.71338
H         66.71286        67.21117         2.37618
H         67.74342        69.30407         3.12186
H         68.63421        71.38060         4.24323
H         68.49003        73.82181         4.62765
