         260
 CSIRO Nanostructure Databank - Neutral Graphene Oxide Data Set
C         30.49982        31.52635         1.30349
C         29.99375        32.61432         1.03553
C         29.92035        36.22591        -0.00494
C         30.08645        37.46458        -0.23945
C         30.27877        40.58238         0.27567
C         30.15035        41.81331         0.15132
C         33.09957        28.86957         1.64213
C         32.10266        29.53052         1.35750
C         32.75800        31.76316         0.49143
C         31.56734        30.71259         0.64846
C         32.61639        33.07133         0.01705
C         30.25835        33.87368         0.42473
C         32.65429        36.11211         0.56342
C         29.45850        34.97635         0.24562
C         32.59340        37.45708        -0.15219
C         31.30909        38.29787        -0.44334
C         32.70551        40.31646         0.63110
C         31.33412        39.59376         0.37153
C         32.81524        41.77125         0.83759
C         30.93213        42.92220         0.55845
C         32.61106        44.40691         0.16859
C         31.39143        44.07304        -0.10827
C         35.78097        27.29456         0.88189
C         35.55813        28.70373         1.02550
C         34.48846        29.26534         1.66578
C         35.17280        31.36077        -0.13094
C         34.13044        31.27971         0.75335
C         34.98857        33.33950        -0.64568
C         33.81947        33.90517        -0.15871
C         35.07397        35.98571         0.17996
C         33.87704        35.31008         0.20342
C         35.06399        37.43260         0.53835
C         33.90511        38.18210        -0.04658
C         35.20305        40.31139         0.45705
C         33.92654        39.69937        -0.08951
C         35.20845        41.78247         0.22866
C         33.92118        42.51079         0.37995
C         35.14928        44.78815         0.40999
C         33.91305        43.93850         0.18570
C         35.41689        45.97492        -0.49147
C         38.12702        27.21732         0.34004
C         36.76649        26.61974         0.57882
C         37.84975        28.73186         0.05075
C         36.71946        29.42988         0.40417
C         37.59612        31.61699        -0.50478
C         36.54975        30.85352        -0.02569
C         37.52999        33.09104        -1.00282
C         36.34374        33.85060        -0.39608
C         37.55937        36.19524        -0.35691
C         36.37454        35.30334         0.01048
C         37.58358        37.33947         0.63318
C         36.33114        38.12812         0.89395
C         37.54639        40.39668         1.17655
C         36.32991        39.64047         0.84897
C         37.61892        41.91155         1.12721
C         36.47092        42.54498         0.38773
C         37.71145        44.60449         0.14906
C         36.49022        44.02964         0.35327
C         37.88046        46.12083        -0.19911
C         36.50547        46.53644        -0.61350
C         40.28796        24.52637        -0.81151
C         39.24159        25.16359        -0.71808
C         40.28537        27.32638        -0.86883
C         38.89626        26.61519        -0.84336
C         40.27110        28.68663        -0.69331
C         38.91111        29.37999        -0.79554
C         40.13800        31.65431        -0.69657
C         38.85095        30.91496        -0.95147
C         40.20199        33.15707        -0.54919
C         38.89016        33.91327        -0.76167
C         40.13432        36.04511         0.14923
C         38.89256        35.40464        -0.41956
C         40.07799        37.25283         0.81190
C         38.74648        37.68511         1.22280
C         40.00761        40.40066         1.69674
C         38.64441        39.84524         1.76070
C         40.21320        41.78667         1.10335
C         38.95261        42.50487         0.69826
C         40.25189        44.50402         0.09036
C         38.94822        43.80271         0.25707
C         40.30526        45.80429        -0.59610
C         38.97149        46.20683        -1.27865
C         40.14009        48.15558        -2.47120
C         39.21770        47.50461        -1.96060
C         42.92180        24.60033        -0.62953
C         41.62079        25.05209        -1.11051
C         42.81279        27.39068        -0.65039
C         41.57757        26.60547        -1.07317
C         42.84251        28.86192        -1.00102
C         41.47641        29.49375        -0.87601
C         43.13851        31.93843        -0.77474
C         41.29887        30.82911        -1.10903
C         42.82529        33.28986        -0.35698
C         41.50540        33.98840        -0.63308
C         42.62659        35.96285         0.79285
C         41.45172        35.42934        -0.11916
C         42.60052        37.43042         1.24320
C         41.23520        38.10086         1.17996
C         43.10550        40.39438         1.42851
C         41.09883        39.37462         1.70770
C         42.87211        41.66467         0.80357
C         41.50164        42.20388         0.36913
C         42.77739        44.34664        -0.31424
C         41.55732        43.73874         0.26414
C         42.78004        45.72985        -0.67143
C         41.52519        46.46580        -0.63008
C         42.70898        48.07916        -2.77952
C         41.51139        48.26778        -2.08532
C         43.96821        25.24537        -0.47862
C         45.40051        27.40276        -0.01250
C         44.07813        26.69410        -0.21063
C         45.45591        28.86584        -0.52620
C         44.17544        29.62360        -0.84048
C         45.53015        31.70793        -0.32992
C         44.19254        31.08337        -0.46948
C         45.72819        33.00827         0.31144
C         43.80001        34.04030         0.24847
C         45.36212        36.05582         0.52629
C         43.95541        35.52831         0.08033
C         45.34221        37.25323         1.49797
C         44.00892        38.09480         1.43386
C         45.34594        40.07821         0.43363
C         44.15922        39.54852         1.12890
C         45.32418        41.56989         0.01753
C         44.00149        42.28452         0.26957
C         45.21604        44.33128        -0.51092
C         43.95041        43.56256        -0.35298
C         45.16506        45.43135        -1.59171
C         43.91838        46.27745        -1.38900
C         43.58893        47.38149        -2.13135
C         47.69843        27.36271        -0.63198
C         46.63109        26.72645        -0.61371
C         47.99431        28.76294        -0.55288
C         46.68872        29.47614        -0.59014
C         48.00858        31.64549        -0.11606
C         46.78110        30.95302        -0.62432
C         48.05573        33.15305        -0.24789
C         46.77307        33.84207         0.07874
C         47.93253        35.86676         1.07205
C         46.67603        35.29168         0.45034
C         47.89924        37.32759         1.53520
C         46.63429        38.06085         1.38460
C         47.95423        40.18362         0.85665
C         46.68933        39.38304         0.76909
C         47.83613        41.69568         0.85811
C         46.52065        42.37124         0.56664
C         47.77598        44.59910         0.00694
C         46.46409        43.83548         0.15889
C         47.52423        45.68994        -0.94158
C         46.49269        46.12374        -1.45143
C         50.54552        28.95234        -0.51913
C         49.19754        29.40576        -0.37741
C         50.54724        31.63084        -0.06955
C         49.29365        30.86727        -0.01253
C         50.50475        32.98557         0.62896
C         49.32468        33.83830         0.12741
C         50.52708        35.97792         0.90302
C         49.24386        35.29654         0.56194
C         50.52768        37.38251         1.50061
C         49.19545        38.12116         1.57966
C         50.41336        40.34931         1.20680
C         49.13447        39.57619         1.23001
C         50.32430        41.67090         0.45839
C         49.15884        42.51562         0.98671
C         50.34066        44.33806        -0.23338
C         49.06785        43.98362         0.39252
C         51.65933        29.50677        -0.46801
C         52.99719        31.71847        -0.04926
C         51.81746        31.00201        -0.70659
C         52.86687        32.92263         0.25876
C         51.80982        33.80969         0.55950
C         52.91988        36.05145         0.85899
C         51.80996        35.16905         0.78259
C         52.82467        37.31718         0.91148
C         51.78602        38.16283         1.25633
C         52.77685        40.37665         0.52330
C         51.77627        39.61434         1.27681
C         52.72467        41.47694        -0.02791
C         51.51774        42.25409        -0.31613
C         51.36613        43.70080        -0.47447
O         36.59555        34.24631         0.99464
O         45.28384        41.68884        -1.37735
O         49.94541        37.73059         2.78213
O         41.01205        44.49592         1.36399
O         36.08488        42.07065        -0.93712
O         35.41400        37.64344         1.94563
O         43.19305        37.66200         2.55645
O         45.99274        39.26408        -0.55433
O         41.67285        25.82250        -2.31802
O         50.47050        41.52269        -0.98899
O         48.40703        44.90113         1.27532
O         48.95244        33.66928        -1.26712
O         31.46889        33.79888        -0.30999
O         41.60202        35.09837        -1.53909
O         46.17033        31.69207        -1.70168
O         40.20997        32.28370         0.62762
O         42.19963        39.92016         2.36873
O         47.89557        36.18676         2.47024
O         44.68698        33.43616         1.12450
O         38.71896        30.73556        -2.42945
O         45.54036        44.72486         0.87072
O         48.43065        31.16889         1.18436
O         42.28571        31.50556        -1.79723
O         46.89603        42.09908         1.93578
O         41.58603        47.88423        -0.71025
O         51.22244        40.31562         2.41145
O         49.90048        36.13237        -0.43502
O         43.63708        29.22737        -2.15879
O         43.10095        27.14686         0.77174
O         33.50347        37.53374        -1.28842
O         38.65835        38.56268         2.30757
O         38.52594        29.27414        -2.25122
O         34.90464        32.10702        -1.31665
O         32.00830        39.51998         1.63792
O         34.48937        30.64552         1.97098
O         39.08197        34.91302        -1.79046
O         40.28115        41.57867         2.54001
O         46.22950        36.20292        -0.62563
O         31.82719        42.43831         1.60528
O         31.89063        35.79378         1.45264
O         37.44157        42.35346         2.50830
H         38.27814        42.16755         2.99528
O         49.42489        42.66114         2.37683
H         48.63938        43.07989         2.79444
O         37.28116        36.73409        -1.66220
H         37.72547        36.15185        -2.32360
O         41.30379        41.70102        -0.98100
H         42.15585        41.74479        -1.46825
O         38.67952        45.20702        -2.25164
H         39.19672        45.36980        -3.06681
O         45.35147        36.60509         2.78576
H         45.35830        37.28648         3.49023
O         31.35648        38.72394        -1.81425
H         31.19202        37.94811        -2.38998
O         43.84068        35.90590        -1.29063
H         44.74658        35.95864        -1.67769
O         38.32619        46.84530         0.92476
H         37.63986        46.80610         1.62305
O         38.94580        27.09865         1.48657
H         38.43325        27.35484         2.28057
O         42.50556        35.16918         1.98911
H         42.93798        35.66601         2.72375
O         33.82948        40.13128        -1.45872
H         33.23148        39.50107        -1.93123
O         31.13034        30.32785        -0.63610
H         30.71441        31.09040        -1.08731
O         50.25912        32.81355         2.04643
H         50.73911        32.01927         2.36214
O         51.84975        31.24706        -2.08215
H         52.62818        30.80585        -2.47915
O         38.17135        26.85781        -2.02580
H         38.66085        26.48995        -2.78990
O         37.30235        33.07795        -2.41317
H         37.74300        32.29519        -2.81726
O         45.61140        27.50703         1.38964
H         45.22598        26.72455         1.83604
O         35.04405        45.28872         1.74586
H         34.13088        45.61274         1.89563
O         45.07776        44.78235        -2.84957
H         45.12573        45.44630        -3.56740
