         324
 CSIRO Nanostructure Databank - Neutral Graphene Oxide Data Set
C          1.18057         3.28979         0.96518
C         -0.04352         3.93815         0.81014
C          1.07682         6.07201         0.43917
C         -0.10396         5.30997         0.56425
C          1.00092         7.53894         0.23613
C         -0.16556         8.26727         0.13563
C          0.93364        10.48662        -0.04265
C         -0.19050         9.70515         0.03893
C          0.90868        11.99652         0.13687
C         -0.09455        12.71349        -0.74782
C          1.06694        14.86282        -0.48617
C         -0.02629        14.05688        -0.96596
C          1.10812        16.28121        -0.54020
C         -0.07819        17.03738        -0.75035
C          1.12378        19.14133        -0.47050
C         -0.07446        18.41728        -0.64826
C          1.10838        20.59455        -0.05154
C         -0.10637        21.37607        -0.46392
C          1.13694        23.46643        -0.28253
C         -0.08260        22.73749        -0.44926
C          1.09487        24.93691        -0.15078
C         -0.09228        25.67304         0.32605
C          1.19879        27.73598         0.68630
C         -0.03107        27.01700         0.61125
C          1.27933        29.12721         0.88486
C          3.63717         3.25212         1.14420
C          2.40070         3.98467         0.81183
C          3.56001         6.19378         0.55796
C          2.32247         5.38130         0.50443
C          3.52451         7.70854         0.51377
C          2.25127         8.30175         0.04646
C          3.49187        10.56548         0.06614
C          2.23501         9.82152        -0.14120
C          3.48180        12.00017         0.05345
C          2.26081        12.67048         0.00444
C          3.53351        14.90923         0.19479
C          2.21782        14.14485         0.06637
C          3.57467        16.33543        -0.17303
C          2.35453        17.00991        -0.38465
C          3.60269        19.16509        -0.43537
C          2.35075        18.44764        -0.45016
C          3.61523        20.63164        -0.45118
C          2.39449        21.33749        -0.33734
C          3.63844        23.46509        -0.26980
C          2.37869        22.76195        -0.30872
C          3.66583        24.85999        -0.04706
C          2.41610        25.64761        -0.01640
C          3.73140        27.70725         0.52511
C          2.46567        26.93170         0.77672
C          3.75332        29.10970         0.76800
C          2.50003        29.78948         0.96786
C          6.23713         3.19348         0.90876
C          4.88130         3.52933         0.60429
C          6.04036         6.29882         0.40868
C          4.85097         5.65322         0.18507
C          6.00875         7.73642         0.40642
C          4.77741         8.41989         0.24688
C          5.93312        10.51135        -0.17972
C          4.71550         9.83570         0.07123
C          6.02032        11.96207         0.12926
C          4.75091        12.74634         0.08935
C          6.02102        14.91084         0.32935
C          4.77763        14.11950         0.15282
C          6.05438        16.35205        -0.00151
C          4.82171        17.04059        -0.19355
C          6.08339        19.21529        -0.30363
C          4.80392        18.46322        -0.36884
C          6.10590        20.59293        -0.93395
C          4.84300        21.33762        -0.55179
C          6.10975        23.46367        -0.41790
C          4.87235        22.74405        -0.39581
C          6.07766        24.84808        -0.28471
C          4.87902        25.56198        -0.02386
C          6.14834        27.70065         0.27382
C          4.91600        27.00776         0.23270
C          6.20068        29.10173         0.53043
C          4.98665        29.79440         0.75554
C          8.60263         3.45435         0.42149
C          7.34823         4.03936         0.57198
C          8.56560         6.33032         0.29335
C          7.32236         5.56921         0.73495
C          8.55038         7.75663         0.22259
C          7.24110         8.41136         0.12303
C          8.89638        10.76565        -0.21074
C          7.06386         9.70359        -0.39579
C          8.69257        12.11004         0.12106
C          7.33589        12.69074         0.30580
C          8.58527        14.90899         0.19643
C          7.32476        14.18224         0.45307
C          8.53708        16.28867        -0.08725
C          7.31761        16.99453        -0.10617
C          8.64947        19.14379        -0.55390
C          7.37199        18.47010        -0.19681
C          8.63654        20.60573        -0.73313
C          7.42609        21.30811        -0.71040
C          8.62364        23.55508        -0.96998
C          7.46372        22.77150        -0.33689
C          8.51491        24.92039        -0.99932
C          7.22734        25.67724        -0.76705
C          8.68649        27.69642        -0.03180
C          7.39498        26.94668         0.05557
C          8.65722        29.16982         0.10362
C          7.45384        29.79937         0.44940
C         10.99201         3.49206        -0.08749
C          9.80856         4.17980         0.12891
C         10.99617         6.38034         0.06293
C          9.78341         5.64443         0.12673
C         11.02759         7.75651         0.40143
C          9.79228         8.48236         0.37107
C         10.75025        10.70916         1.21922
C          9.82499         9.95197         0.45775
C         10.95797        12.09268         1.02350
C          9.82724        12.82310         0.57904
C         11.04792        14.96893         0.46117
C          9.80285        14.25313         0.44430
C         11.06541        16.27969         0.02495
C          9.81720        16.90993        -0.58721
C         11.09219        19.11287        -0.84010
C          9.81188        18.42664        -0.56365
C         11.11912        20.59853        -0.77102
C          9.88386        21.30652        -0.88084
C         11.19705        23.42736        -1.14123
C          9.86372        22.73373        -1.42952
C         11.39228        24.72663        -1.49125
C          9.55284        25.86350        -1.41004
C         11.03921        27.84623        -1.02409
C          9.76279        27.09442        -0.85491
C         11.06577        29.25996        -0.55313
C          9.84886        29.88179        -0.14447
C         13.50629         3.51061        -0.58947
C         12.20491         4.16982        -0.54209
C         13.52085         6.38351        -0.29762
C         12.21622         5.71951        -0.42281
C         13.54879         7.74902         0.10548
C         12.34661         8.39002         0.54103
C         13.64627        10.47730         0.98457
C         12.53168         9.62194         1.19144
C         13.60127        11.95745         1.26187
C         12.25468        12.76851         1.32384
C         13.57845        14.95590         0.87270
C         12.25599        14.27488         1.03438
C         13.62461        16.16631        -0.02781
C         12.35912        16.88824        -0.37922
C         13.65020        19.11844        -0.56757
C         12.39878        18.34926        -0.77729
C         13.63304        20.52746        -0.53400
C         12.37284        21.22557        -0.66569
C         13.60628        23.40307        -0.27537
C         12.49787        22.67439        -0.99829
C         13.49236        24.86061        -0.06833
C         12.36244        25.58331        -0.76623
C         13.64366        27.80545        -0.64556
C         12.37369        27.07478        -0.98907
C         13.58889        29.34886        -0.49704
C         12.26256        29.95841        -0.44126
C         15.91466         3.56719        -1.05330
C         14.68188         4.23369        -0.74562
C         15.96941         6.35319        -0.41298
C         14.70963         5.67580        -0.53485
C         16.00476         7.71075        -0.02423
C         14.79827         8.44129         0.21549
C         16.09404        10.57457         0.68015
C         14.81607         9.83520         0.55645
C         16.05232        12.06128         0.64439
C         14.86453        12.70333         0.95362
C         16.15712        14.90186         0.83965
C         14.85925        14.18024         1.07516
C         16.15798        16.29485         0.34916
C         14.93018        16.89717        -0.19463
C         16.19953        19.12643        -0.37853
C         14.91790        18.37226        -0.53630
C         16.16658        20.64330        -0.37725
C         14.84393        21.30904        -0.35842
C         16.07785        23.49332         0.08462
C         14.80250        22.71310        -0.10649
C         15.99932        24.91660         0.56783
C         14.69513        25.64897         0.38045
C         16.03586        27.85772         0.21857
C         14.74139        27.13419         0.12862
C         15.97455        29.30477         0.25367
C         14.73904        29.98010         0.13705
C         18.31271         3.61028        -1.62581
C         17.11206         4.25896        -1.15790
C         18.41701         6.31051        -0.82479
C         17.18438         5.65236        -0.77282
C         18.56750         7.64710        -0.22805
C         17.30677         8.34868         0.24074
C         18.60224        10.55092         0.09733
C         17.37416         9.83026         0.47120
C         18.52979        12.04572        -0.10467
C         17.31216        12.75560         0.45071
C         18.62566        14.86802         0.46625
C         17.38213        14.13297         0.54923
C         18.62179        16.28797         0.53190
C         17.36060        16.97594         0.31161
C         18.49540        19.11677         0.53957
C         17.37543        18.40206         0.13370
C         18.31633        20.52516         0.77685
C         17.32959        21.31849         0.25343
C         18.68186        23.59507         0.48690
C         17.41726        22.80305         0.21298
C         18.59994        25.01183         0.47849
C         17.28431        25.70279         0.64648
C         18.44862        27.92815         0.57296
C         17.22893        27.18302         0.46391
C         18.39608        29.35880         0.64659
C         17.15861        30.02154         0.53205
C         19.48480         4.29573        -1.76418
C         20.76034         6.41862        -1.50788
C         19.57926         5.67836        -1.37283
C         20.83049         7.78487        -1.14808
C         19.77709         8.44038        -0.52540
C         20.98337        10.64423        -0.37385
C         19.77312         9.87705        -0.26135
C         21.01673        11.99837        -0.07217
C         19.84395        12.74431         0.16609
C         21.06227        14.90776         0.55172
C         19.86173        14.15498         0.39997
C         21.04564        16.28395         0.67829
C         19.83471        17.02680         0.61864
C         20.96945        19.24210         0.43622
C         19.80637        18.48988         0.63879
C         21.07645        20.65642         0.21314
C         20.18014        21.57908         0.70303
C         21.12427        23.80533         0.26255
C         19.98356        23.00019         0.43660
C         21.02400        25.18525         0.26516
C         19.77456        25.80914         0.45523
C         20.86774        28.03079         0.80493
C         19.70907        27.26623         0.61554
C         20.80944        29.43165         0.92675
C         19.60129        30.09382         0.83731
O         11.99074         5.05856        -1.70409
O         19.25000        21.11165         1.64527
O         12.27937        25.25093         0.67123
O          4.84378         4.44043        -0.48516
O          6.80748        26.10588        -2.05463
O          6.74327        19.12182         0.98658
O         14.34942        26.58496         1.43380
O         16.49279        19.90514        -1.60109
O          1.73865        25.67899        -1.28848
O         12.82175        15.10983         2.10542
O         12.96382        12.37158         2.51351
O         13.00975        15.95321        -1.33574
O          2.37328         8.88391        -1.28661
O         11.56654        10.02984         2.11807
O         16.89719        10.13976         1.84674
O         14.06371        28.63425        -1.72184
O         16.59729        25.18525         1.86198
O          8.32367        26.92877         1.18680
O          6.68096        12.06297         1.46856
O          3.55009         7.01660         1.79287
O          6.64217        14.64536         1.65383
O         11.74739        18.60399        -2.07884
O         15.63240        14.71268         2.20789
O         10.47951        25.36177        -2.33225
O          8.08049        10.22872        -1.19761
O         16.91495        23.31887        -1.09951
O          2.69000        14.65576         1.37187
O         11.80096        27.55002        -2.22700
O         18.15613         7.63743         1.19497
O         15.07536        17.34891        -1.58368
O          7.39063         5.67953         2.21051
H          7.31248         6.62980         2.44413
O         12.98825        22.60970        -2.40918
H         12.33325        22.08480        -2.92142
O          6.02162        20.35584        -2.37840
H          6.05130        21.22417        -2.83380
O          9.87805        16.55740        -2.01164
H         10.64778        17.05098        -2.39339
O          0.48380        12.21547         1.52288
H          0.70645        13.14077         1.76474
O          2.56116        26.48769         2.18134
H          2.63918        27.29016         2.74027
O          9.72699        22.58303        -2.87289
H          9.74821        23.49150        -3.25205
O          7.78870        22.74670         1.10155
H          7.81326        23.67433         1.42150
O         18.33409        12.17683        -1.58609
H         19.17992        11.91285        -2.01005
O          1.02540        20.52183         1.43010
H          1.10699        21.43765         1.77270
H          1.20044         2.21898         1.21294
H         -0.97641         3.36730         0.91762
H         -1.08615         5.79635         0.49491
H         -1.13963         7.76410         0.21739
H         -1.17457        10.19165         0.10975
H         -0.95228        12.14480        -1.13661
H         -0.82554        14.54341        -1.54545
H         -1.03468        16.51387        -0.88423
H         -1.03655        18.94487        -0.69367
H         -1.06418        20.86033        -0.61522
H         -1.01136        23.29956        -0.62632
H         -1.06074        25.15417         0.37307
H         -0.96492        27.56156         0.82159
H          0.34779        29.70992         0.94852
H          3.54198         2.45885         1.90148
H          2.51458        30.87734         1.12656
H          6.46748         2.19625         1.31925
H          5.00465        30.88099         0.92505
H          8.67180         2.35463         0.42484
H          7.44555        30.89362         0.57055
H         11.02282         2.40206         0.06182
H          9.86428        30.96650         0.04439
H         13.54508         2.41140        -0.55569
H         12.21977        30.96478         0.00515
H         15.88687         2.49143        -1.28257
H         14.67877        31.04276         0.41397
H         18.25523         2.54817        -1.90606
H         17.12148        31.11786         0.60767
H         20.38221         3.79486        -2.15549
H         21.64596         5.94056        -1.95017
H         21.75792         8.32755        -1.37894
H         21.92957        10.13036        -0.58780
H         21.99480        12.49873        -0.03569
H         22.03071        14.38937         0.57347
H         22.00315        16.80800         0.80438
H         21.89922        18.68000         0.25586
H         21.92227        21.00385        -0.39891
H         22.10864        23.32363         0.18067
H         21.93714        25.78303         0.15477
H         21.85073        27.54701         0.87303
H         21.73925        29.99644         1.08048
H         19.55513        31.18966         0.90818
