         260
 CSIRO Nanostructure Databank - Neutral Graphene Oxide Data Set
C        -11.13729         0.77752         0.81227
C        -10.21363         1.52748        -0.11423
C         -8.93790         0.73466        -0.44839
C         -7.61316         1.45756        -0.58300
C         -6.35095         0.64903        -0.78900
C         -5.06847         1.39624        -0.95376
C         -3.77289         0.58950        -0.91216
C         -2.50232         1.34917        -0.64621
C         -1.20897         0.63633        -0.50262
C         -0.04585         1.32618        -0.63943
C          1.23890         0.61301        -0.83877
C          2.50956         1.34499        -1.15034
C          3.85323         0.62062        -1.06269
C          5.05518         1.39444        -0.50953
C          6.39038         0.67769        -0.61299
C          7.54625         1.39294        -0.44343
C          8.86249         0.69899        -0.27030
C          9.97219         1.40263         0.53805
C         10.08335         0.67994         1.88298
C         -9.92555         2.94665         0.35333
C         -8.72131         3.54585         0.39622
C         -7.42977         2.77934         0.20279
C         -6.31450         3.62453        -0.39913
C         -5.08089         2.88530        -0.80294
C         -3.81082         3.55395        -0.36103
C         -2.55330         2.77547        -0.17649
C         -1.23830         3.49135         0.00492
C          0.01887         2.78872        -0.40271
C          1.21879         3.58120        -0.84259
C          2.53767         2.87461        -1.28784
C          3.79334         3.50306        -0.67701
C          5.11330         2.81877        -1.09308
C          6.34000         3.54626        -0.56778
C          7.49269         2.85728        -0.30385
C          8.67418         3.58487         0.18694
C          9.77452         2.88780         0.65270
C         -8.56116         4.96793         0.91842
C         -7.41938         5.75204         0.27389
C         -6.29602         4.98960        -0.27091
C         -5.07623         5.75628        -0.65380
C         -3.75392         5.03499        -0.57557
C         -2.49407         5.75593        -0.23878
C         -1.27344         4.99290         0.15423
C          0.00138         5.74343         0.05327
C          1.22106         5.02439        -0.44223
C          2.48689         5.69280        -0.02105
C          3.76945         4.93825        -0.25410
C          5.00586         5.74522        -0.47199
C          6.31770         5.02511        -0.57696
C          7.53307         5.78712        -0.17779
C          8.65587         5.01531         0.22129
C         -7.40230         7.11234         0.34549
C         -6.33443         8.02063        -0.24525
C         -5.05740         7.24349        -0.58754
C         -3.77623         7.94962        -0.21695
C         -2.51911         7.22084         0.10182
C         -1.19343         7.96960         0.21900
C          0.00912         7.21331        -0.35305
C          1.15619         7.94166         0.37950
C          2.46285         7.13197         0.42901
C          3.78486         7.87254         0.44193
C          5.03155         7.18264        -0.02984
C          6.25308         7.96667        -0.51330
C          7.49280         7.17687        -0.12061
C         -6.01802         9.25062         0.59646
C         -4.87897         9.95392         0.46384
C         -3.79670         9.45026        -0.48834
C         -2.42229        10.08595        -0.43257
C         -1.22715         9.40207        -0.29094
C          0.05460        10.02011        -0.46282
C          1.28380         9.36102        -0.14270
C          2.52156         9.98048        -0.16930
C          3.71229         9.39253         0.56705
C          5.05615        10.03915         0.28435
C          6.19285         9.39863        -0.02880
C        -11.11166        -0.56279         0.92220
C        -10.02274        -1.37985         0.38597
C         -8.87674        -0.70868        -0.18951
C         -7.57610        -1.36840         0.10938
C         -6.29635        -0.79411        -0.40842
C         -4.97939        -1.49457        -0.25404
C         -3.80608        -0.87675        -0.57622
C         -2.50385        -1.62748        -0.52057
C         -1.21941        -0.84715        -0.52678
C          0.01586        -1.47007         0.04874
C          1.31567        -0.75008        -0.21832
C          2.59841        -1.50765        -0.30277
C          3.83889        -0.85339        -0.84552
C          5.10086        -1.56737        -0.45950
C          6.37712        -0.80311        -0.46649
C          7.65430        -1.55499        -0.65146
C          8.90140        -0.80114        -0.25744
C          9.90760        -1.50571         0.67494
C         10.08555        -0.65915         1.92805
C        -10.03566        -2.75794         0.52511
C         -8.85218        -3.53613         0.01928
C         -7.58763        -2.82192         0.47151
C         -6.28366        -3.56894         0.59462
C         -4.98413        -2.90527         0.23696
C         -3.76137        -3.76687         0.04890
C         -2.45599        -3.04297        -0.01077
C         -1.28338        -3.68896         0.26584
C          0.00667        -2.92986         0.36892
C          1.31027        -3.68417         0.28043
C          2.59339        -3.00377        -0.11155
C          3.74156        -3.75165        -0.75168
C          5.06191        -3.03073        -0.81908
C          6.34715        -3.82172        -0.75242
C          7.64424        -3.05060        -0.68689
C          8.91358        -3.74307        -0.15957
C          9.48241        -2.91933         0.97912
C         -8.79929        -5.04046         0.17190
C         -7.64453        -5.73712         0.30683
C         -6.38555        -5.07139         0.74965
C         -5.11894        -5.85405         0.90523
C         -3.81595        -5.19344         0.51016
C         -2.54153        -5.86542         0.96243
C         -1.25521        -5.09827         0.79675
C          0.04577        -5.87193         0.67993
C          1.19062        -5.15138         0.01558
C          2.41872        -5.91334        -0.34303
C          3.76315        -5.28946        -0.73628
C          4.91515        -5.76595         0.19280
C          6.28180        -5.24288        -0.28840
C          7.53388        -5.87340         0.23037
C          8.69630        -5.18679         0.25508
C         -7.60474        -7.17577        -0.20755
C         -6.37826        -8.00086         0.15657
C         -5.15026        -7.35412         0.74770
C         -3.84157        -8.11130         0.75652
C         -2.53682        -7.38301         1.01100
C         -1.24402        -8.14021         0.77639
C          0.05248        -7.38236         0.60655
C          1.22935        -8.09624         0.04107
C          2.45308        -7.37771        -0.11093
C          3.68124        -8.02826        -0.08618
C          4.90005        -7.28881         0.31695
C          6.16586        -8.04807         0.55569
C          7.53927        -7.36932         0.54255
C         -6.17387        -9.25441        -0.61239
C         -4.99074        -9.89820        -0.67956
C         -3.78918        -9.46054         0.06541
C         -2.46385       -10.04841        -0.24722
C         -1.29616        -9.50116         0.16710
C         -0.02346       -10.32805         0.15940
C          1.25802        -9.52749        -0.00903
C          2.44831       -10.19541        -0.18895
C          3.74812        -9.48144        -0.45036
C          5.00184       -10.18050         0.01640
C          6.12341        -9.52650         0.35441
O         -5.85181        -5.43335         2.07607
O          3.87789        -9.49030        -1.93644
H          3.22977        -8.84695        -2.29793
O          2.39221         6.06711         1.39785
O          2.33111        -3.38818         1.27017
O         -2.94118         1.04575        -2.01835
O          1.38946        -5.56133        -1.36310
O         -3.43423         3.05474         0.96129
O         -5.16016         6.58198        -1.87854
O          9.41528        -0.05109        -1.39776
O          4.22571        -3.21754        -2.00935
O         -0.35435         2.94483         1.02356
O         -5.44368        -2.98001         1.62559
O         -1.69552        -1.47473        -1.75227
O          4.75067         7.32259         1.39558
O          7.82977        -2.27842        -1.91540
O         -3.43751         7.59387         1.16770
O         -7.67168        -1.83031         1.51507
O         -1.80440        -7.97811         2.11269
O          2.21558        -0.79241         0.92098
O          4.79868         1.50893         0.90727
H          4.91614         0.61939         1.31654
O         -6.13904        -8.02085         1.58539
O         -5.10910         2.28905        -2.12351
O         -8.43816         1.32845        -1.74206
O          5.69539        -1.21399         0.81765
O          3.83421         3.84235         0.72310
O         -3.85299        -4.86559        -0.92736
O          0.97135         4.64346        -1.82320
O         -0.57161         5.45894         1.34105
O          0.43296        -6.63984         1.83573
O          6.38888        -4.92168        -1.71337
O          5.60527         5.52643        -1.79469
O         -6.84025         2.46469         1.42819
O          9.89843        -3.72817        -1.23776
H          9.49408        -3.20747        -1.97599
O          3.98085        -0.30116        -2.18425
O          1.70552         0.73497        -2.21838
O          0.63435         8.02561         1.74686
O         -7.64105        -7.11228        -1.64095
H         -8.37219        -6.52166        -1.91623
O         -8.83240        -3.38188        -1.44896
H         -9.75153        -3.46230        -1.78081
O          4.00283        -5.79320        -2.05308
H          4.38723        -5.05899        -2.59080
O          5.32250        -7.66733         1.70049
O         -1.91332        -5.21822         2.09723
O          3.44238         9.66111         1.97212
H          3.91637         8.97660         2.49480
O         -0.84863         8.06833         1.64557
O         -0.09182        -1.92009         1.42565
O          5.23778         2.70730        -2.51084
H          5.22871         3.61234        -2.89225
O         -2.82989         5.44397        -1.63256
O         11.23944         1.24200        -0.12594
H         11.37722         0.27363        -0.28350
O          2.68724         3.13532        -2.69310
H          2.12121         2.49664        -3.18171
O          0.11354         7.29246        -1.76740
H         -0.04759         8.21565        -2.05617
O         -9.78229         5.69604         0.83694
H        -10.01250         5.81589        -0.10683
O         -6.50932        -0.38267        -1.80512
O         -3.96267        -9.33240         1.51968
O          6.22071         8.08192        -1.95931
H          6.19549         7.16666        -2.33186
O          4.67709        -5.17920         1.48093
H          4.88135        -5.86133         2.16433
O          0.02593       -11.04961         1.40086
H         -0.16434       -10.42448         2.13155
O         11.20412        -1.58402         0.01308
H         11.12612        -2.30368        -0.66148
O         -6.84533         8.53812        -1.51292
H         -6.74555         7.80428        -2.16476
O          8.37267        -8.03315        -0.41550
H          8.14285        -7.71463        -1.31271
O        -10.97336         1.65087        -1.34868
H        -10.32513         1.86875        -2.05688
O         -4.25336         9.67764        -1.84285
H         -5.21748         9.45015        -1.88732
H         10.23714        -1.18339         2.88408
H         10.24686         1.26863         2.79839
H         10.63850         3.45868         1.02748
H          9.55627         5.53768         0.57852
H          8.40010         7.72228         0.18327
H          7.12639         9.97794        -0.10914
H          5.10902        11.11135         0.53210
H          2.59042        11.02451        -0.51390
H          0.09226        11.07062        -0.79121
H         -2.37843        11.14968        -0.71858
H         -4.71541        10.86845         1.05380
H         -6.80478         9.60994         1.27801
H         -8.27686         7.61240         0.79287
H         -8.31119         4.87523         2.01092
H        -10.81967         3.54896         0.58781
H        -11.94595         1.35192         1.28759
H        -11.87183        -1.08357         1.52388
H        -10.90199        -3.26762         0.97037
H         -9.69451        -5.58261        -0.18130
H         -8.52335        -7.71901         0.16037
H         -7.01902        -9.61170        -1.21883
H         -4.89066       -10.78611        -1.32227
H         -2.45218       -11.04640        -0.71462
H         -0.08131       -11.09535        -0.65591
H          2.44298       -11.29377        -0.25848
H          5.01741       -11.27727        -0.07447
H          7.04296       -10.08581         0.58267
H          8.01308        -7.53618         1.54484
H          9.60783        -5.71758         0.57302
H         10.11620        -3.45476         1.70709
