         424
 CSIRO Nanostructure Databank - Neutral Graphene Oxide Data Set
C          2.11615         2.10192        -2.81070
C          1.95292         3.46296        -2.49770
C          3.26975         1.43144        -2.45267
C          2.95006         4.18119        -1.81793
C          1.66821         6.31814        -1.87096
C          1.57767         7.72529        -1.68544
C          2.79708         5.59528        -1.48797
C          2.55117         8.43512        -1.02330
C          1.32386        10.60012        -1.12147
C          1.28495        11.99396        -0.98382
C          2.50532         9.88851        -0.88920
C          2.43394        12.72127        -0.68617
C          1.32964        14.95050        -1.27022
C          1.40049        16.30560        -1.39904
C          2.31622        14.20553        -0.40325
C          2.49849        17.05872        -0.86775
C          2.58760        18.47740        -1.03243
C          4.30920         2.11404        -1.75467
C          4.14759         3.50704        -1.43548
C          5.47905         1.43945        -1.37347
C          5.19574         4.20376        -0.75763
C          3.87071         6.27832        -0.81293
C          3.64154         7.68666        -0.30152
C          5.05405         5.61741        -0.48405
C          4.91834         8.47969        -0.17825
C          3.69445        10.60203        -0.54448
C          3.66771        12.02997        -0.48600
C          4.90760         9.86639        -0.25672
C          4.86828        12.77062        -0.18082
C          3.63960        14.92175        -0.34258
C          3.64172        16.34343        -0.36622
C          4.84088        14.21016        -0.12117
C          4.81937        17.05993        -0.03795
C          3.63780        19.19758        -0.54123
C          4.74480        18.53969         0.23140
C          6.49812         2.09543        -0.62764
C          6.35571         3.51350        -0.34520
C          7.60208         1.38911        -0.16500
C          7.44510         4.21880         0.26976
C          6.17050         6.35065         0.09898
C          6.10255         7.74996         0.18372
C          7.38283         5.63788         0.43991
C          7.23273         8.51335         0.73686
C          6.21253        10.62766        -0.25367
C          6.08928        12.09733         0.06814
C          7.33633         9.95264         0.49274
C          7.24805        12.80757         0.40286
C          6.05972        14.93006         0.03243
C          6.05185        16.36948         0.06581
C          7.27899        14.22646         0.28184
C          7.26859        17.09135         0.09116
C          6.05747        19.22876         0.02461
C          7.26974        18.53016         0.02672
C          8.55729         2.00808         0.80488
C          8.60790         3.51505         0.68173
C          9.92111         1.35826         0.80723
C          9.74774         4.21289         1.10289
C          8.54637         6.31936         0.87809
C          8.50872         7.76911         1.11741
C          9.76169         5.63637         1.11426
C          9.76808         8.52466         1.12603
C          8.48420        10.63107         0.81915
C          8.43507        12.12338         1.03178
C          9.73575         9.93608         1.07874
C          9.74721        12.83022         0.82174
C          8.50839        14.92860         0.36122
C          8.55077        16.34775        -0.12976
C          9.73379        14.24886         0.62050
C          9.77359        17.11304         0.28426
C          8.52076        19.21889        -0.00937
C          9.75479        18.54242         0.17397
C         11.01615         2.01686         1.23351
C         10.95150         3.47066         1.51962
C         12.28506         1.30609         1.64912
C         12.25339         4.24263         1.64203
C         11.00158         6.37594         1.29006
C         10.99505         7.81570         1.19317
C         12.22656         5.70120         1.41498
C         12.22061         8.54134         1.20591
C         10.96412        10.66794         1.08114
C         10.95187        12.11145         0.96588
C         12.20853         9.97657         1.13998
C         12.19479        12.81246         1.00036
C         10.94221        14.99501         0.71939
C         10.96738        16.41941         0.56362
C         12.16252        14.27774         1.08937
C         12.21725        17.14627         0.59122
C         10.97708        19.25090         0.24625
C         12.21136        18.57417         0.38957
C         13.54264         2.10270         1.38113
C         13.52538         3.52108         1.44050
C         14.74033         1.43253         1.17225
C         14.72478         4.25988         1.30763
C         13.46779         6.40899         1.34864
C         13.45673         7.83338         1.25839
C         14.71086         5.70372         1.34175
C         14.69300         8.54972         1.24482
C         13.44957        10.69395         1.08420
C         13.42832        12.13439         1.01947
C         14.69001         9.98963         1.13254
C         14.65583        12.86819         0.82995
C         13.48501        15.04060         1.03059
C         13.45047        16.47165         0.68156
C         14.70275        14.26171         0.76606
C         14.67831        17.15525         0.51349
C         13.44121        19.26967         0.33281
C         14.67658        18.58794         0.37225
C         15.96949         2.13955         1.05018
C         15.95937         3.56984         1.14298
C         17.18679         1.45469         0.85969
C         17.18820         4.29427         1.07632
C         15.94047         6.42369         1.33280
C         15.91037         7.84873         1.33073
C         17.19284         5.71629         1.23700
C         17.15738         8.61476         1.51014
C         15.92680        10.67863         0.97077
C         15.87618        12.09085         0.55854
C         17.17837        10.04282         1.12919
C         17.18439        12.83757         0.39243
C         15.92642        14.99081         0.54310
C         15.91536        16.43206         0.49863
C         17.15453        14.30616         0.46792
C         17.13489        17.14131         0.37499
C         15.91306        19.27661         0.28112
C         17.13771        18.58454         0.28550
C         18.40723         2.15749         0.74845
C         18.40430         3.59015         0.85807
C         19.63527         1.47876         0.55527
C         19.63411         4.30448         0.73548
C         18.44419         6.40291         1.25682
C         18.47439         7.85659         1.55307
C         19.63279         5.72218         0.96584
C         19.70496         8.62916         1.30967
C         18.42381        10.72465         0.98243
C         18.44955        12.13579         0.68944
C         19.68109        10.00779         1.10154
C         19.62895        12.87428         0.64645
C         18.38356        15.01037         0.40341
C         18.37354        16.43636         0.32982
C         19.62140        14.29289         0.40752
C         19.59820        17.13635         0.14848
C         18.37608        19.27240         0.19297
C         19.60590        18.58950         0.11056
C         20.84688         2.18291         0.41947
C         20.83829         3.60661         0.48387
C         22.08685         1.47991         0.23321
C         22.07357         4.36567         0.07964
C         20.93408         6.39619         1.15567
C         20.97176         7.88721         1.42803
C         22.16539         5.74368         0.67985
C         22.28899         8.64702         1.38256
C         20.94020        10.71756         0.89040
C         20.94143        12.22416         1.00065
C         22.15675        10.04877         0.82224
C         22.10815        12.89516         0.33210
C         20.83362        15.00708         0.19019
C         20.79662        16.40738        -0.00380
C         22.08787        14.25862         0.08994
C         22.01628        17.14649        -0.39474
C         20.83061        19.29031         0.02014
C         22.06935        18.62697        -0.21265
C         23.31778         2.13876         0.20342
C         23.35583         3.58968         0.25839
C         24.54719         1.42191         0.05794
C         24.55111         4.27208         0.27635
C         23.36827         6.43667         0.59327
C         23.43907         7.86542         0.79335
C         24.58454         5.71385         0.27167
C         24.60790         8.56265         0.50387
C         23.37389        10.71107         0.47615
C         23.30349        12.09687        -0.10291
C         24.59426        10.01568         0.42190
C         24.59370        12.86399         0.01513
C         23.31821        14.94483        -0.20847
C         23.29971        16.39094        -0.48884
C         24.56214        14.28046        -0.13532
C         24.55335        17.17407        -0.14838
C         23.26662        19.30608        -0.34642
C         24.53394        18.60819        -0.79555
C         25.78334         2.06816         0.07844
C         25.85653         3.53142         0.45889
C         26.99801         1.40595        -0.17938
C         26.99605         4.19046        -0.31102
C         25.79668         6.40418         0.07516
C         25.81183         7.85399         0.13316
C         27.02290         5.69220        -0.14208
C         26.98202         8.56557        -0.12330
C         25.82717        10.71392         0.16858
C         25.81264        12.16951         0.06609
C         27.02222         9.99169        -0.01652
C         27.02962        12.88928        -0.06042
C         25.80810        15.01506        -0.24842
C         25.83299        16.41649        -0.39382
C         27.04156        14.28432        -0.21675
C         27.05974        17.12565        -0.47476
C         25.83250        19.22118        -0.38508
C         27.08666        18.60103        -0.93712
C         28.27128         2.04416        -0.12942
C         28.31282         3.48600        -0.02119
C         29.41839         1.22466        -0.42661
C         29.47980         4.27912        -0.00880
C         28.22077         6.37514        -0.33779
C         28.21033         7.85285        -0.64228
C         29.46366         5.68370        -0.30713
C         29.47286         8.53610        -0.13453
C         28.29052        10.68796        -0.22975
C         28.33720        12.16134         0.10693
C         29.45290        10.00895        -0.47760
C         29.45153        12.87554        -0.64735
C         28.28672        15.02398        -0.20559
C         28.26273        16.44990        -0.24437
C         29.51288        14.32774        -0.26656
C         29.51549        17.20019        -0.03442
C         28.37905        19.31255        -0.58886
C         29.54909        18.65260        -0.33769
C         30.72786         1.57507        -0.07845
C         30.77203         3.72906         0.27519
C         31.96609         1.20664        -0.63126
C         31.96240         4.27103        -0.15066
C         30.71836         6.38584        -0.45567
C         30.73764         7.79588        -0.48541
C         31.96632         5.66505        -0.49880
C         31.96414         8.50517        -0.53490
C         30.72924        10.69645        -0.91585
C         30.75938        12.15212        -0.53152
C         31.98710         9.93367        -0.56220
C         31.95001        12.82650        -0.47221
C         30.76793        14.97207        -0.17150
C         30.80784        16.43606         0.04993
C         31.96346        14.25275        -0.26703
C         32.06725        17.14721        -0.27577
C         30.84074        19.30524        -0.32047
C         32.04086        18.60933        -0.33949
C         33.16389         1.97148        -0.46542
C         33.23941         3.45475         0.00062
C         34.37574         1.34826        -0.73764
C         34.35027         4.13929        -0.81926
C         33.19024         6.36573        -0.63833
C         33.20239         7.79456        -0.63356
C         34.43405         5.63684        -0.64653
C         34.42937         8.51093        -0.69374
C         33.20039        10.60965        -0.55754
C         33.20738        12.08397        -0.89800
C         34.44615         9.90658        -0.60073
C         34.44146        12.76751        -0.28724
C         33.26723        14.98164        -0.04182
C         33.21340        16.43592        -0.44749
C         34.44698        14.24535        -0.70620
C         34.49813        17.11218        -0.85757
C         33.32036        19.26465        -0.30266
C         34.51426        18.56407        -0.41200
C         35.64851         2.02116        -0.65713
C         35.66825         3.43947        -0.63620
C         36.86499         1.31080        -0.61476
C         36.87943         4.14621        -0.57226
C         35.64947         6.30025        -0.68823
C         35.69122         7.76993        -1.04056
C         36.89842         5.58986        -0.60701
C         36.95000         8.47829        -0.61001
C         35.71703        10.63954        -0.58993
C         35.73873        12.03579        -0.52712
C         36.95032         9.90090        -0.53491
C         36.96503        12.76103        -0.38502
C         35.75033        14.96535        -0.42624
C         35.74757        16.33485        -0.47189
C         36.97840        14.19354        -0.31447
C         37.04814        17.08369        -0.61003
C         35.76006        19.19574        -0.15428
C         36.97712        18.51233        -0.12659
C         38.09246         1.99359        -0.52672
C         38.10839         3.42270        -0.50207
C         39.34160         1.28783        -0.46245
C         39.34066         4.13084        -0.41735
C         38.12146         6.29078        -0.51591
C         38.13965         7.74342        -0.47881
C         39.35393         5.56302        -0.39858
C         39.38572         8.43400        -0.28549
C         38.17784        10.60203        -0.34046
C         38.18915        12.03027        -0.27217
C         39.39980         9.86244        -0.21660
C         39.42078        12.72694        -0.03789
C         38.20626        14.88693        -0.11960
C         38.23807        16.31259        -0.10022
C         39.42842        14.15280         0.06927
C         39.41176        17.00609         0.23291
C         38.16974        19.14950         0.25966
C         39.38535        18.44640         0.38155
C         40.52744         1.96553        -0.36944
C         40.56118         3.39837        -0.33974
C         41.77806         4.10769        -0.23265
C         40.59232         6.24892        -0.26064
C         40.60424         7.70121        -0.18577
C         41.78780         5.49231        -0.18554
C         41.80739         8.41727        -0.00819
C         40.63111        10.55441        -0.01513
C         40.63808        11.99854         0.09620
C         41.82031         9.79982         0.08113
C         41.83074        12.71682         0.34602
C         40.64140        14.84687         0.33685
C         40.63665        16.29192         0.47882
C         41.83192        14.09453         0.46884
C         41.78352        17.01698         0.82638
C         40.57949        19.12335         0.74543
C         41.75168        18.41787         0.95341
O         21.00282         6.93415         2.54762
O         33.16086        12.02209        -2.30751
O         30.14189        16.88523         1.27605
O         17.80429         8.28057         2.79259
O         11.48550         3.82050         2.84536
O          7.53797         8.16630         2.13892
O         30.82226         2.51881         0.97394
O         12.83345        14.77104         2.31485
O         22.56833        16.73412        -1.72689
O         16.45711        12.31214        -0.77994
O          4.40196        18.67547         1.68024
H          5.12755        18.25326         2.18835
O         34.27015        14.29263        -2.13064
H         34.23202        15.23937        -2.41532
O         28.20391         7.98414        -2.09065
H         27.32481         7.70506        -2.42116
O         35.74465         7.77672        -2.52324
H         36.64543         7.48873        -2.78389
O         24.49687        17.40289         1.28716
H         24.65143        16.54824         1.74236
O         12.19119         1.09250         3.07214
H         12.05013         1.98032         3.47805
O          6.65513        10.59955        -1.66818
H          5.94627        11.01647        -2.20354
O         33.51288        15.03847         1.40097
H         32.72007        15.43678         1.82081
O          3.14940         7.51507         1.08362
H          2.32263         6.98973         1.03319
O         22.66510         8.89585         2.77919
H         22.38735         8.09431         3.28189
O         37.25815        17.19834        -2.08402
H         37.50597        16.30457        -2.40740
O         23.10668        11.87734        -1.56227
H         23.12732        12.76086        -1.99026
O         27.09674        18.56422        -2.38087
H         26.15999        18.47196        -2.68791
O         30.75109        10.74362        -2.39485
H         31.64039        11.17884        -2.61295
O         28.67922        12.21027         1.52648
H         27.97395        11.74324         2.02230
O         21.92772         4.58393        -1.38379
H         22.02520         3.70731        -1.81402
O          8.00854         1.72821         2.14903
H          8.62495         2.12473         2.80178
O         26.70858         3.97043        -1.72941
H         27.45058         4.34600        -2.24854
O         21.13088        12.48099         2.44933
H         20.53797        11.87081         2.93835
O         26.19749         3.60985         1.86876
H         25.48695         3.16740         2.37792
O         24.47104        18.46610        -2.22983
H         23.66383        17.92326        -2.43290
O          1.77185        14.27939         0.97040
H          1.71396        15.22974         1.20855
O         34.50752        17.12023        -2.33078
H         35.42379        17.39228        -2.59390
O         34.23822        12.63732         1.14433
H         34.78498        13.30960         1.60412
O         29.39788         8.47224         1.32591
H         30.18886         8.92153         1.69166
O          8.67786        16.23484        -1.62565
H          9.52505        15.77244        -1.80454
O         33.61492         3.45507         1.39123
H         32.87233         3.05110         1.89075
O         33.94897         3.94479        -2.21454
H         34.54583         4.48147        -2.77748
O         29.10775        12.86176        -2.06772
H         29.58654        12.09327        -2.48394
O          8.17897        12.25891         2.48569
H          8.87748        11.75546         2.95650
H          1.31417         1.57332        -3.34469
H          1.01938         3.95688        -2.79839
H          3.39749         0.36698        -2.69560
H          0.84747         5.82367        -2.40645
H          0.72289         8.24518        -2.14164
H          0.39541        10.06643        -1.36560
H          0.32054        12.50667        -1.09896
H          0.46824        14.41303        -1.69123
H          0.61613        16.84650        -1.95044
H          1.77345        18.98925        -1.56829
H          5.59160         0.37092        -1.60943
H          3.67779        20.28744        -0.68372
H          7.68681         0.31242        -0.37632
H          6.06872        20.32836        -0.02153
H          9.96673         0.26998         0.64114
H          8.52126        20.31560        -0.09463
H         12.35054         0.30071         1.16387
H         10.97355        20.34530         0.13326
H         14.74844         0.33368         1.12090
H         13.43368        20.36357         0.21644
H         17.18607         0.35649         0.79904
H         15.91137        20.37318         0.19447
H         19.63823         0.38042         0.49468
H         18.37085        20.37205         0.15663
H         22.06219         0.38178         0.17499
H         20.82041        20.38917         0.07398
H         24.50417         0.33706        -0.12586
H         23.27428        20.40189        -0.24582
H         26.97066         0.32507        -0.38991
H         25.87942        19.60991         0.64597
H         29.24341         0.30194        -1.00160
H         28.41417        20.38900        -0.81952
H         32.01773         0.31567        -1.27707
H         30.86193        20.40435        -0.38173
H         34.38001         0.26812        -0.95512
H         33.34984        20.34549        -0.09204
H         36.85541         0.21090        -0.63467
H         35.75432        20.26702         0.10529
H         39.32917         0.18834        -0.48407
H         38.14221        20.21626         0.53018
H         41.47847         1.41573        -0.31417
H         42.72430         3.55054        -0.17576
H         42.75546         6.00205        -0.08948
H         42.76334         7.88370         0.07105
H         42.78545        10.30191         0.22767
H         42.78433        12.18412         0.45549
H         42.78514        14.60202         0.66772
H         42.73363        16.49920         1.01377
H         40.56068        20.21653         0.86064
H         42.67130        18.95177         1.23112
