         294
 CSIRO Nanostructure Databank - Neutral Graphene Oxide Data Set
C          1.22901         2.15834        -1.53480
C          1.18917         3.53632        -1.13024
C          2.40943         1.48426        -1.62588
C          2.32717         4.21083        -0.76883
C          1.05530         6.39795        -0.20906
C          1.04597         7.71007         0.07560
C          2.33829         5.73264        -0.66695
C          2.31055         8.52626        -0.07183
C          1.12311        10.69633         0.68354
C          1.14620        12.08325         0.80717
C          2.29304         9.96336         0.42767
C          2.33104        12.82075         0.54601
C          1.24728        15.12643         0.84432
C          1.25240        16.48920         0.63285
C          2.30400        14.26380         0.42602
C          2.18733        17.14796        -0.36820
C          2.34895        18.65452        -0.30209
C          3.65655         2.10627        -1.23039
C          3.60802         3.51448        -0.80521
C          4.81837         1.37429        -1.19941
C          4.78164         4.16621        -0.49127
C          3.48504         6.27312         0.19008
C          3.47962         7.76577         0.58484
C          4.76356         5.50527         0.15338
C          4.78007         8.49843         0.30310
C          3.53324        10.65512         0.35327
C          3.53263        12.06344         0.33871
C          4.79634         9.88223         0.24137
C          4.78215        12.74000        -0.18692
C          3.52131        14.94007        -0.06919
C          3.53384        16.39925        -0.38614
C          4.79552        14.20970         0.17667
C          4.83100        17.22033        -0.35590
C          3.50762        19.31301        -0.15021
C          4.72801        18.58669         0.37627
C          6.06536         1.91709        -0.54803
C          6.06480         3.43968        -0.61806
C          7.39513         1.38340        -1.05398
C          7.33939         4.11701        -0.29302
C          6.04480         6.26066         0.36871
C          6.07198         7.75838         0.04461
C          7.33599         5.53809         0.19214
C          7.28802         8.45297         0.70355
C          6.06538        10.56879         0.13956
C          6.08829        12.06729         0.29213
C          7.30669         9.93236         0.31009
C          7.29851        12.68524        -0.42606
C          6.07875        14.95220         0.14733
C          6.08739        16.48031         0.24005
C          7.29924        14.21519        -0.35119
C          7.30216        17.20153        -0.42626
C          6.08271        19.28974         0.29614
C          7.28576        18.65146         0.08075
C          8.58977         1.93813        -0.64894
C          8.50943         3.23808         0.16820
C          9.85866         1.28012        -0.69209
C          9.82457         4.06835         0.17322
C          8.57907         6.32168        -0.18461
C          8.55570         7.74840         0.28772
C          9.83916         5.56482         0.28226
C          9.73010         8.52763         0.06184
C          8.52607        10.66614         0.32217
C          8.59511        12.06439         0.07157
C          9.79640         9.91629         0.64992
C          9.80018        12.77232         0.09104
C          8.58710        14.96923        -0.37273
C          8.52555        16.40916         0.06646
C          9.91740        14.22230        -0.36640
C          9.77225        17.13892         0.39701
C          8.56524        19.31023         0.17319
C          9.78019        18.61659         0.26249
C         11.07790         1.93846        -0.44074
C         11.06311         3.42890        -0.38116
C         12.32162         1.29496        -0.42850
C         12.31276         4.21837        -0.65169
C         11.17593         6.32761         0.28306
C         11.09482         7.79511        -0.07191
C         12.34638         5.76591        -0.56997
C         12.31706         8.51403         0.20946
C         11.08307        10.63276         0.29971
C         11.06345        12.08393         0.27155
C         12.28461         9.93210         0.17179
C         12.25404        12.78067         0.43450
C         11.02115        14.99662         0.34667
C         11.02687        16.35221         0.44690
C         12.28425        14.25227         0.71880
C         12.29055        17.10050         0.81103
C         11.04582        19.24673         0.19352
C         12.27007        18.54805         0.31709
C         13.56055         1.99696        -0.37960
C         13.65359         3.48267        -0.75356
C         14.73297         1.29429        -0.15315
C         14.73462         4.18999         0.07054
C         13.60568         6.43854        -0.00749
C         13.55079         7.76582         0.34944
C         14.91595         5.70142        -0.10931
C         14.73173         8.57571         0.86664
C         13.55835        10.70868        -0.13147
C         13.53805        12.01273         0.68319
C         14.88370         9.87815         0.03567
C         14.78522        12.81253         0.37683
C         13.47025        14.93102        -0.03157
C         13.52844        16.38596         0.33745
C         14.75762        14.16252         0.20012
C         14.81197        17.12630         0.55386
C         13.47203        19.18354        -0.00810
C         14.74012        18.51465        -0.09638
C         15.99954         1.96472         0.01043
C         15.93466         3.38662         0.44440
C         17.20081         1.35356        -0.20412
C         17.20795         4.03772         0.91794
C         15.97913         6.32141         0.79567
C         16.05620         7.81965         0.80939
C         17.18974         5.52641         1.16751
C         17.23401         8.47693         0.95712
C         16.04779        10.70785         0.57495
C         16.03960        12.07027         0.49092
C         17.20070         9.97521         1.26794
C         17.31166        12.88643         0.65502
C         15.99636        14.90198        -0.11388
C         16.00375        16.38154        -0.00887
C         17.29820        14.13892        -0.25304
C         17.28952        17.17542        -0.03681
C         15.82452        19.07261        -0.73289
C         17.08685        18.29891        -1.06611
C         18.46167         2.17090        -0.26901
C         18.49200         3.29470         0.76844
C         19.73290         1.36272        -0.33444
C         19.81170         3.99912         0.97993
C         18.51375         6.25729         1.29512
C         18.55139         7.72511         0.79333
C         19.81330         5.49293         1.23839
C         19.84103         8.43020         1.35556
C         18.54402        10.69640         1.11462
C         18.56396        12.03053         0.36278
C         19.84519         9.94959         1.08863
C         19.85036        12.83345         0.71241
C         18.54110        14.99973        -0.03219
C         18.53037        16.34267        -0.24623
C         19.83356        14.30090         0.22026
C         19.80430        17.16486        -0.37408
C         18.37233        19.06708        -1.26284
C         19.58244        18.44979        -1.16558
C         20.91978         1.94492        -0.11885
C         21.03231         3.32193         0.43918
C         22.15388         4.17731        -0.00152
C         21.18119         6.22722         1.10307
C         21.02127         7.69846         0.73849
C         22.18232         5.49464         0.23712
C         21.98873         8.37842         0.04367
C         20.99899        10.61510         0.39215
C         21.03689        12.02671         0.21523
C         21.99477         9.78496        -0.12840
C         22.14318        12.69780        -0.39041
C         21.08099        14.95138        -0.33359
C         20.96343        16.32449        -0.90317
C         22.19684        14.04409        -0.65147
C         21.93428        16.90461        -1.65749
C         20.75505        19.04345        -1.78494
C         21.85997        18.29561        -2.04497
O         20.73999        15.05401         1.11926
O         20.73290         3.31076         1.88239
O          6.95628         3.96833        -1.68612
O          7.24428        17.19129        -1.79821
O         19.37502        10.64789         2.29066
O         11.40235         3.88965        -1.76229
O          8.82873        16.63117         1.45265
O          3.84673         5.45981         1.33204
O          5.49972        14.45918         1.41598
O         17.74417         3.17741         1.99481
O          7.82276        14.76737        -1.60227
O          9.83535         4.73835         1.47379
O          8.23894         2.77945         1.45063
O         14.83049         3.65398         1.39929
O         15.74288        15.75756        -1.30738
O         19.19997         5.87699         2.51117
O          6.82512         5.80589         1.51641
O         10.38624         8.28923        -1.24117
O          3.53437        15.42301        -1.48390
O         16.15516         5.84943         2.16036
O         16.86338        17.68852        -2.37453
H         16.58245        18.39689        -2.99027
O         13.49654        11.09969        -1.52420
H         12.71098        11.67547        -1.65093
O         10.37249        14.14469        -1.74894
H          9.59271        14.31461        -2.32531
O          2.64206         6.15910        -2.02856
H          1.95448         5.79000        -2.62107
O         13.15625        14.80602        -1.44818
H         13.90779        15.22399        -1.93079
O         18.63479        11.60866        -1.01134
H         18.25801        12.30189        -1.60365
O         16.88563        10.08430         2.68335
H         16.03321         9.59299         2.83102
O         19.94393        12.93356         2.14757
H         20.60562        13.63507         2.34259
O         15.00280        17.32774         1.98940
H         15.91710        17.69593         2.10367
O         17.37092        13.39650         1.99731
H         17.66685        12.67285         2.59303
O         15.32023         9.42594        -1.26212
H         14.93806        10.04083        -1.93084
O          2.63272         8.65400        -1.48228
H          1.85977         9.04559        -1.93856
O         14.05864         3.55583        -2.14373
H         13.25211         3.37730        -2.67913
O         14.46974         8.93182         2.24592
H         13.87208         9.71784         2.27225
O          6.30055         7.87118        -1.38733
H          5.48982         7.59213        -1.86374
O          4.69102        12.66919        -1.62486
H          4.97198        11.77437        -1.91245
O          6.29243        12.23636         1.71306
H          5.54830        11.80863         2.18626
O         18.77700         7.63772        -0.64397
H         17.91135         7.62811        -1.10730
O         20.16516        17.63316         0.97088
H         20.47743        16.82642         1.45634
O         11.65786         6.34708         1.64450
H         11.20312         5.62185         2.14030
O          5.07940        17.56033        -1.71868
H          4.97637        16.75157        -2.26917
O         21.77405         6.26295         2.42302
H         21.05561         6.55360         3.03662
O         17.48172        17.80890         1.25778
H         18.45993        17.96104         1.37798
O          7.21141        12.29442        -1.81340
H          7.57288        13.03776        -2.35018
O          5.98275         1.51066         0.84314
H          6.78294         1.91127         1.31081
O         12.35452        17.13559         2.28130
H         13.27033        17.43518         2.51766
O          9.78226         9.69245         2.10488
H          9.90353        10.56127         2.54453
O         19.89846         8.25046         2.77507
H         19.48969         9.05410         3.18178
O          7.12052         8.42725         2.13635
H          7.97244         8.72413         2.53338
O          3.25919         7.84262         2.00778
H          3.68789         7.04630         2.40485
O          4.39561        18.44453         1.77924
H          5.20180        18.12168         2.24668
O         18.40125         2.91878        -1.54084
H         18.36532         2.26717        -2.27284
O          6.24620        16.78250         1.62951
H          6.01618        15.98038         2.15574
O         15.44486         5.88806        -1.45287
H         14.83357         5.43380        -2.08020
O          8.65120         6.29825        -1.63463
H          9.22572         7.05147        -1.92085
O         17.35234        13.75681        -1.65300
H         16.96106        14.51130        -2.15710
O          1.51437        16.92908        -1.63975
H          1.87929        16.08786        -2.00751
O         12.53809        14.37148         2.14261
H         12.46135        15.33451         2.39137
O         12.25238         6.24443        -1.92228
H         11.62671         5.65291        -2.40240
O         13.55793        11.65307         2.09293
H         13.38813        12.48474         2.59633
H          0.28541         1.66506        -1.80719
H          0.21768         4.05197        -1.15402
H          2.42994         0.43695        -1.96078
H          0.13582         5.80355        -0.09497
H          0.11607         8.18993         0.41764
H          0.15912        10.17591         0.77749
H          0.20628        12.61778         1.00316
H          0.40899        14.69060         1.41058
H          0.40128        17.08041         1.00274
H          1.44468        19.21839        -0.58080
H          4.78688         0.30589        -1.46534
H          3.52944        20.41175        -0.21616
H          7.40346         0.48004        -1.68792
H          6.09990        20.34330         0.62591
H          9.87630         0.18453        -0.81207
H          8.59239        20.41239         0.18690
H         12.35143         0.19407        -0.41023
H         11.08478        20.31315        -0.08153
H         14.69937         0.19604        -0.07905
H         13.43397        20.24747        -0.29661
H         17.23268         0.30087        -0.52636
H         15.69133        20.04994        -1.22857
H         19.67339         0.32095        -0.68662
H         18.31412        20.03269        -1.79469
H         21.85491         1.37901        -0.25371
H         22.96017         3.70501        -0.58384
H         23.06693         6.05263        -0.09969
H         22.83725         7.83903        -0.39791
H         22.83242        10.21443        -0.69398
H         23.02141        12.10277        -0.68085
H         23.08898        14.45644        -1.14358
H         22.81362        16.32661        -1.97810
H         20.68421        20.07882        -2.15060
H         22.71227        18.73223        -2.58342
