         638
 CSIRO Nanostructure Databank - Neutral Graphene Oxide Data Set
C         23.71021        69.95837        -3.12936
C         23.82561        71.34177        -3.35097
C         22.86146        72.04578        -4.12951
C         24.13484        74.09695        -3.92931
C         23.01988        73.39983        -4.40263
C         25.61358        65.74596        -1.51930
C         25.66672        67.13291        -1.60394
C         24.63386        67.85517        -2.25953
C         25.78881        69.97749        -1.79603
C         24.69873        69.25356        -2.40193
C         25.90611        71.38147        -2.00577
C         24.95426        72.05180        -2.81470
C         26.25955        74.13354        -2.68951
C         25.11604        73.44671        -3.13861
C         28.05815        61.46040        -1.14821
C         28.04338        62.82580        -0.99506
C         26.94352        63.63811        -1.63128
C         27.93931        65.70535        -0.57366
C         26.66717        64.92833        -0.84313
C         27.90492        67.11681        -0.48543
C         26.76737        67.86903        -1.00305
C         27.72527        70.05620        -0.18387
C         26.77942        69.26295        -1.05629
C         28.00468        71.46188        -0.69679
C         27.05170        72.10353        -1.47924
C         28.28168        74.24588        -1.34075
C         27.22666        73.50947        -1.85595
C         30.46072        57.16342        -0.80964
C         30.38664        58.52427        -0.56970
C         29.22035        59.29648        -0.91900
C         30.23710        61.32627         0.11378
C         29.16133        60.65364        -0.70648
C         30.31578        62.82381        -0.07826
C         29.17538        63.53425        -0.42002
C         30.28816        65.69499         0.13427
C         29.13023        64.99281        -0.28554
C         30.25811        67.12055         0.21341
C         29.05719        67.81723        -0.04165
C         30.29223        70.02160         0.35183
C         28.99333        69.28145         0.18540
C         30.35650        71.48178         0.07209
C         29.21477        72.15873        -0.31466
C         30.56958        74.28627        -0.44173
C         29.20934        73.67296        -0.31605
C         32.96206        52.94098        -1.00007
C         32.91954        54.31002        -0.70924
C         31.71954        55.05497        -0.85523
C         32.82859        57.11085        -0.05734
C         31.66407        56.42216        -0.58644
C         32.78013        58.48159         0.14936
C         31.57641        59.23160        -0.10993
C         32.84216        61.37438         0.05287
C         31.55335        60.60429         0.03824
C         32.69638        62.79089         0.51218
C         31.52619        63.49766         0.33543
C         32.68158        65.63639         0.70044
C         31.50888        64.96299         0.44842
C         32.75307        67.08969         0.48153
C         31.48933        67.86581         0.43925
C         32.76290        70.01533         0.80859
C         31.53975        69.23448         0.39049
C         32.81050        71.41685         0.25880
C         31.65564        72.13974         0.07328
C         33.00708        74.22687        -0.24033
C         31.73341        73.57333        -0.24518
C         35.44343        48.71080        -1.34938
C         35.44047        50.08385        -1.19862
C         34.22182        50.83494        -1.19286
C         35.45571        53.01914        -0.93442
C         34.18005        52.20725        -0.99610
C         35.29981        54.27155        -0.11636
C         34.10458        54.97045        -0.15872
C         35.17700        57.01899         0.72978
C         34.03222        56.35708         0.25049
C         35.20983        58.44460         0.86162
C         33.88337        59.16168         0.91797
C         35.17783        61.30100         1.00456
C         33.99406        60.63818         0.69170
C         35.21833        62.74310         1.02010
C         33.88270        63.46169         1.16234
C         35.21061        65.59435         1.25843
C         33.99584        64.88998         0.62835
C         35.28513        67.07601         1.02055
C         34.05369        67.79958         0.66674
C         35.25913        69.90374         0.93452
C         34.07289        69.26693         0.76495
C         35.37854        71.30338         0.48658
C         34.13218        72.05391         0.07540
C         35.46378        74.14183         0.07591
C         34.20450        73.52948        -0.01193
C         37.87912        44.32936        -1.64792
C         37.86275        45.72346        -0.99750
C         36.65132        46.54205        -1.39725
C         37.84412        48.55543        -0.65170
C         36.63228        47.89321        -1.21045
C         37.85449        50.05151        -0.50842
C         36.75329        50.84424        -1.16455
C         37.80954        52.83260        -0.06402
C         36.67603        52.22616        -0.56924
C         37.77985        54.18137         0.46575
C         36.44905        54.78628         0.62579
C         37.65799        56.92654         1.34603
C         36.37822        56.24988         1.08638
C         37.60240        58.38637         1.57013
C         36.39029        59.13180         1.13228
C         37.62651        61.28225         1.34471
C         36.41350        60.57171         1.20443
C         37.66320        62.69842         1.32162
C         36.42863        63.41303         1.14713
C         37.70643        65.59786         1.47973
C         36.52019        64.89799         0.85464
C         37.65692        66.97042         1.64828
C         36.45403        67.71956         1.32873
C         37.76921        69.89556         1.41989
C         36.43398        69.20889         1.58076
C         37.78903        71.33696         1.14016
C         36.62636        72.03552         0.71943
C         37.90300        74.10792         0.47373
C         36.66417        73.42959         0.40813
C         40.46071        40.04573        -1.46661
C         40.43191        41.43814        -1.29611
C         39.22024        42.21299        -1.46251
C         40.36941        44.32902        -1.04097
C         39.18387        43.59202        -1.37964
C         40.40154        45.72791        -0.95111
C         39.15932        46.50136        -1.31521
C         40.30993        48.54744        -0.37461
C         39.14102        47.87755        -0.69943
C         40.31523        49.98598        -0.17006
C         39.13797        50.73911        -0.32267
C         40.25761        52.84387         0.26726
C         39.09486        52.14665        -0.05911
C         40.23268        54.18638         0.77271
C         38.92957        54.84409         0.89768
C         40.08275        56.86138         1.89432
C         38.85158        56.23337         1.33085
C         40.16269        58.37460         2.18869
C         38.86267        59.13297         1.84910
C         40.14325        61.30192         1.59943
C         38.91990        60.51857         1.20198
C         40.14194        62.68141         1.68541
C         38.90137        63.42852         1.51473
C         40.15140        65.56872         1.84782
C         38.91337        64.83298         1.63922
C         40.13628        66.96241         1.98185
C         38.84125        67.72383         2.20583
C         40.13655        69.93106         2.09475
C         38.89573        69.18992         1.76474
C         40.19015        71.39885         1.76815
C         39.00112        72.05122         1.21100
C         40.33968        74.10422         0.92304
C         39.07941        73.43231         0.85487
C         43.01140        35.80425        -1.72004
C         42.94037        37.19340        -1.37192
C         41.72803        37.90877        -1.49454
C         42.89222        40.03086        -1.08725
C         41.67413        39.31512        -1.33079
C         42.87077        41.44007        -0.89859
C         41.63431        42.11876        -0.94469
C         42.84866        44.28578        -0.41280
C         41.56343        43.55391        -0.64850
C         42.91019        45.74800        -0.77241
C         41.58675        46.44699        -0.62033
C         42.76874        48.52311         0.04884
C         41.57882        47.83280        -0.35191
C         42.72126        49.92588         0.28716
C         41.54217        50.65648         0.10075
C         42.76119        52.84114         0.52978
C         41.55917        52.17011        -0.06152
C         42.70925        54.13691         1.00318
C         41.43353        54.81477         1.14840
C         42.69381        56.88302         2.21182
C         41.39444        56.11952         1.85706
C         42.68840        58.37026         1.85780
C         41.37929        59.03793         1.49910
C         42.66073        61.26662         2.09918
C         41.34995        60.51214         1.90242
C         42.61211        62.72101         1.97815
C         41.39953        63.40730         1.87963
C         42.64334        65.55391         1.81068
C         41.39094        64.84550         1.88976
C         42.67171        66.99785         1.86841
C         41.41009        67.66959         2.20171
C         42.69909        69.90221         2.05378
C         41.42973        69.19078         2.28055
C         42.67211        71.32395         1.86360
C         41.50325        72.04805         1.61928
C         42.78082        74.13878         1.25219
C         41.53300        73.44810         1.27348
C         45.60104        33.28456        -2.66789
C         44.35196        33.86492        -2.46948
C         45.44459        35.70702        -1.23345
C         44.22263        35.11976        -1.80974
C         45.39782        37.20613        -0.81994
C         44.13872        37.91240        -1.06741
C         45.37021        40.03772        -0.92882
C         44.13040        39.32126        -1.01456
C         45.36279        41.45971        -0.78753
C         44.12024        42.15214        -0.70337
C         45.31634        44.26800        -0.28060
C         44.12338        43.54873        -0.50184
C         45.28168        45.68785        -0.00599
C         44.08159        46.42289        -0.11192
C         45.21135        48.45809         0.63730
C         44.02319        47.80033         0.20734
C         45.21045        49.88428         0.84460
C         43.89668        50.63884         0.90942
C         45.23366        52.76156         0.97043
C         44.04290        52.07005         0.37483
C         45.20289        54.16076         1.20886
C         43.95010        54.85502         1.31398
C         45.17163        56.90744         1.87426
C         43.95131        56.19742         1.71649
C         45.13992        58.34859         2.20339
C         43.86674        59.09272         1.99184
C         45.14900        61.26696         1.83824
C         43.92735        60.52861         1.94919
C         45.13823        62.68740         1.76546
C         43.91067        63.44780         2.21320
C         45.03134        65.55049         1.14120
C         43.84621        64.85916         1.73036
C         45.11174        67.01695         1.53089
C         43.88596        67.71208         1.81915
C         45.16503        69.83025         1.83635
C         43.91258        69.16062         1.96515
C         45.22509        71.28683         2.01799
C         43.92415        72.08150         2.00246
C         45.22667        74.15238         1.56124
C         43.97381        73.50050         1.59752
C         46.78993        33.91671        -2.26670
C         47.92198        35.84353        -1.19854
C         46.76118        35.14957        -1.58411
C         47.91301        37.18611        -0.72930
C         46.66747        37.94630        -0.82636
C         47.80044        40.18427        -1.33155
C         46.61292        39.33189        -1.00424
C         47.84470        41.50636        -0.62773
C         46.58829        42.18082        -0.56660
C         47.76683        44.24308         0.08862
C         46.55577        43.56456        -0.24226
C         47.73182        45.64326         0.38228
C         46.49154        46.35394         0.35384
C         47.67225        48.40528         1.00760
C         46.45467        47.73891         0.68128
C         47.59596        49.80368         1.56261
C         46.38276        50.56843         1.09433
C         47.64023        52.70574         1.36394
C         46.40314        52.01856         1.16408
C         47.64545        54.10450         1.45046
C         46.43091        54.84159         1.45407
C         47.64766        57.00541         1.66709
C         46.41677        56.26469         1.68360
C         47.68708        58.39229         1.77967
C         46.44824        59.13238         2.09677
C         47.62168        61.26991         1.61097
C         46.41181        60.57602         1.79817
C         47.61174        62.69257         1.44307
C         46.34637        63.41541         1.49632
C         47.53902        65.51947         0.76848
C         46.32680        64.80161         1.28988
C         47.56446        66.99974         1.10470
C         46.32868        67.69455         1.40619
C         47.60007        69.84443         1.41164
C         46.36509        69.13423         1.55071
C         47.61885        71.27379         1.48570
C         46.46204        72.00648         1.70051
C         47.67573        74.14387         1.42501
C         46.45241        73.45447         1.62693
C         49.13684        37.76924        -0.32443
C         50.32512        39.91560        -0.01879
C         49.26123        39.06291         0.27729
C         50.26845        41.36836         0.06034
C         49.01886        42.11416        -0.14094
C         50.19768        44.22553         0.46601
C         48.99424        43.52204         0.16365
C         50.17845        45.62146         0.70993
C         48.93750        46.33300         0.67918
C         50.15573        48.45341         1.17915
C         48.90486        47.73546         0.96015
C         50.12311        49.83171         1.39138
C         48.88448        50.55849         1.41354
C         50.13475        52.62920         1.04626
C         48.87263        51.93821         1.35672
C         50.15188        54.17241         1.12241
C         48.93181        54.84191         1.71973
C         50.17503        56.98961         1.50687
C         48.88305        56.27556         1.19152
C         50.15909        58.40287         1.60318
C         48.92005        59.12192         1.66743
C         50.09266        61.29534         1.61213
C         48.89507        60.56448         1.64678
C         50.09298        62.71449         1.43748
C         48.83198        63.40119         1.31596
C         50.02630        65.50983         0.93254
C         48.83697        64.81558         1.07809
C         49.97753        66.95068         0.47991
C         48.75723        67.68459         0.99695
C         50.03507        69.80294         0.92199
C         48.82079        69.12394         1.13659
C         50.02768        71.30867         0.77265
C         48.94477        71.98228         1.60879
C         50.07975        74.13587         0.95672
C         48.90585        73.46905         1.31580
C         51.43665        42.07440         0.27437
C         52.64611        44.16575         0.67348
C         51.46158        43.50336         0.45890
C         52.72526        45.62598         0.99426
C         51.39806        46.34699         0.94486
C         52.69020        48.47219         1.13091
C         51.41234        47.73186         1.10275
C         52.64662        49.83508         1.41661
C         51.38016        50.57782         1.75983
C         52.61945        52.68579         0.67357
C         51.39135        51.95950         1.15982
C         52.65657        54.14477         1.13501
C         51.43305        54.85809         1.31998
C         52.65172        56.99040         1.69362
C         51.38294        56.25615         1.56461
C         52.61986        58.45527         1.51382
C         51.41016        59.11730         1.58566
C         52.54336        61.30150         1.13583
C         51.40887        60.59837         1.87557
C         52.63548        62.76767         1.56090
C         51.30479        63.45221         1.32553
C         52.51333        65.55149         0.79419
C         51.28845        64.83329         1.04166
C         52.49200        66.96660         0.61363
C         51.27428        67.68755         0.67812
C         52.49125        69.81253         0.44795
C         51.26559        69.09938         0.69234
C         52.50230        71.23736         0.32520
C         51.39154        71.98251         1.01768
C         52.36215        74.09651         0.06535
C         51.30676        73.45285         0.65212
C         53.70518        46.38689         0.08080
C         55.11523        48.36819         0.33429
C         53.88196        47.80571         0.60001
C         55.55611        49.65604         0.79537
C         53.81674        50.66625         1.48200
C         55.15391        52.66224         0.90426
C         53.89316        51.98104         1.06057
C         55.14617        54.09771         0.93617
C         53.89348        54.78601         1.18309
C         55.08779        56.99721         0.87653
C         53.94218        56.23057         1.49190
C         55.10525        58.46623         1.22520
C         53.87962        59.17283         1.34907
C         55.04849        61.28097         0.91353
C         53.86811        60.57939         1.23169
C         55.01305        62.73380         0.69924
C         53.81201        63.45072         0.89929
C         54.96794        65.55456         0.38365
C         53.76448        64.84980         0.70006
C         54.94341        66.97165         0.22626
C         53.71739        67.67550         0.37141
C         54.89860        69.78637        -0.10750
C         53.69440        69.08920         0.22163
C         54.86373        71.22552        -0.29514
C         53.61850        71.91743        -0.13158
C         54.84686        74.08651        -0.47915
C         53.52693        73.36541        -0.54611
C         56.42062        50.56979         0.23151
C         57.56010        52.73603         0.46144
C         56.37454        51.97078         0.59312
C         57.58433        54.10720         0.67871
C         56.36932        54.82232         0.86295
C         57.59445        56.97557         0.92662
C         56.40989        56.27371         0.97258
C         57.63129        58.45974         1.23431
C         56.30634        59.17221         1.04932
C         57.47467        61.23021         0.30818
C         56.26955        60.56570         0.84193
C         57.43225        62.70685         0.03581
C         56.19049        63.43847         0.34414
C         57.42284        65.56224        -0.03938
C         56.19420        64.84703         0.23577
C         57.39034        66.95901        -0.21400
C         56.14419        67.67322        -0.10006
C         57.29586        69.82108        -0.80585
C         56.09557        69.07399        -0.28255
C         57.35150        71.23169        -0.23627
C         56.04653        71.95370        -0.44830
C         57.30817        74.07293        -0.77034
C         56.04020        73.39582        -0.53516
C         58.92607        54.79518         0.76352
C         60.01803        57.00624         0.51606
C         58.86344        56.30368         0.73171
C         60.05773        58.45481         0.44769
C         58.81974        59.18440         0.64224
C         59.96908        61.31395         0.14578
C         58.78271        60.55116         0.40681
C         59.92515        62.70196        -0.03412
C         58.70857        63.44230        -0.02648
C         59.89738        65.58310        -0.33640
C         58.67771        64.85246        -0.10702
C         59.86573        67.00682        -0.48949
C         58.61642        67.69599        -0.44552
C         59.80149        69.82962        -0.73160
C         58.60089        69.09312        -0.60691
C         59.75766        71.27519        -0.81693
C         58.57475        71.97314        -0.71859
C         59.73608        74.15830        -1.37656
C         58.49954        73.40604        -0.91545
C         61.21250        59.12340         0.12467
C         62.19320        61.19845        -0.96829
C         61.31930        60.62230         0.16705
C         62.31693        62.70120        -0.82708
C         61.23895        63.44873        -0.06778
C         62.27830        65.57054        -0.90915
C         61.11624        64.88868        -0.50195
C         62.29356        67.00331        -0.96127
C         61.06963        67.73489        -0.71649
C         62.27532        69.90234        -1.05566
C         61.04582        69.15068        -0.81556
C         62.27996        71.26301        -1.16014
C         61.03209        72.07438        -0.90107
C         62.07978        73.86727        -2.34352
C         60.80886        73.18687        -1.94257
C         63.37760        63.37817        -1.33124
C         64.56685        65.51574        -1.76273
C         63.45501        64.83383        -1.30035
C         64.60981        66.94969        -1.77315
C         63.47381        67.67694        -1.29279
C         64.65918        69.82120        -1.84017
C         63.59253        69.15136        -1.02259
C         64.76785        71.27791        -1.73623
C         63.55686        72.08896        -1.27776
C         64.46678        74.02465        -2.63613
C         63.34508        73.32754        -2.15380
C         65.69085        67.64656        -2.33652
C         66.64290        69.74084        -3.27495
C         65.68750        69.07654        -2.43652
C         66.65499        71.12737        -3.42944
C         65.90359        71.97563        -2.47171
C         66.38247        73.93509        -3.98726
C         65.87568        73.49884        -2.64535
C         67.25194        71.73188        -4.56168
C         67.02738        73.08790        -4.86060
O         34.95849        71.39308        -0.94923
O         44.60820        71.78427         3.26072
O         45.31816        36.12085         0.15513
O         29.44119        69.68079         1.53573
O         53.53060        56.59245         2.83067
O         39.94185        70.92216         3.16146
O         41.85459        60.74723         3.23663
O         49.98243        53.52933        -0.15099
O         48.57528        39.89891        -2.23585
O         45.86716        58.75578         3.39891
O         37.93210        58.92965         2.94279
O         36.12142        55.14594         2.00986
O         54.96900        50.07032         2.01271
O         37.50997        49.21339         0.63759
O         57.24945        61.73457        -1.07224
O         66.04876        71.63115        -1.06506
O         42.03592        43.92262         0.72968
O         33.59685        67.39717        -0.73224
O         40.51403        56.05999         3.03877
O         41.42919        68.38798         3.51626
O         43.20525        45.76236        -2.21780
H         43.41942        46.68599        -2.46842
O         42.81943        56.86567         3.65624
H         41.97768        57.24243         4.01272
O         59.81626        54.30195        -0.24814
H         59.44328        54.53309        -1.12322
O         61.19422        72.71043         0.39912
H         62.16435        72.87089         0.53355
O         36.77578        65.01247        -0.56899
H         35.96187        64.69459        -1.03450
O         44.74674        65.58026        -0.31769
H         45.60527        65.79838        -0.76158
O         49.26209        71.83094         3.03156
H         48.55158        72.27381         3.54295
O         47.43239        65.47826        -0.73623
H         47.50736        64.53336        -0.99543
O         33.22683        61.49650        -1.38330
H         33.78989        62.29809        -1.46779
O         64.04890        69.26995         0.38636
H         63.45972        68.70196         0.92813
O         47.40247        49.63467         3.01968
H         46.49092        49.29990         3.15865
O         52.17712        61.27821        -0.26919
H         52.91001        61.68036        -0.78212
O         35.69932        53.46059        -2.33630
H         34.87446        53.89568        -2.64470
O         53.27885        45.74766         2.33761
H         52.68155        45.27528         2.95397
O         37.80637        45.50578         0.43018
H         37.72327        46.37695         0.87359
O         29.79588        61.17640         1.51825
H         28.90312        61.57774         1.58724
O         60.27704        72.55852        -3.14219
H         60.25769        73.23885        -3.84745
O         27.33438        63.96599        -2.97468
H         28.20685        64.40999        -2.93994
O         61.67672        63.53806         1.33538
H         62.64161        63.71196         1.33418
O         33.54474        63.42225         2.56941
H         34.16070        64.02391         3.05201
O         36.16891        69.31842         3.02480
H         36.95084        68.93280         3.49267
O         44.03246        63.54308         3.69510
H         43.78681        62.66854         4.06883
O         41.19557        58.87704         0.07419
H         41.95843        59.27808        -0.39065
O         53.21994        46.40763        -1.26508
H         52.36541        46.88723        -1.27676
O         49.81465        66.90794        -0.98458
H         48.94741        66.46031        -1.15849
O         26.14264        64.48716         0.45168
H         25.92560        65.28848         0.97333
O         51.79234        71.89863         2.40734
H         50.99535        72.04217         2.97347
O         57.10975        69.95974        -2.24810
H         57.12922        69.06254        -2.64199
O         34.21224        64.76043        -0.81395
H         34.06992        65.67491        -1.18263
O         52.93025        62.83279         2.98153
H         52.90152        63.77385         3.25159
O         62.03250        60.93816         1.39932
H         61.45406        60.69908         2.15302
O         39.17747        46.69498        -2.77100
H         40.00457        47.16943        -3.00025
O         49.14894        54.87859         3.14791
H         48.37405        55.30798         3.56820
O         48.78294        56.18914        -0.26102
H         48.85415        57.09749        -0.62179
O         51.35867        50.74337         3.22464
H         51.14920        49.87118         3.62121
O         32.55806        70.19680         2.26447
H         31.61009        70.40824         2.41403
O         37.16550        51.02761        -2.55616
H         36.68740        51.82339        -2.89177
O         49.66488        71.56470        -0.61058
H         50.35625        71.17479        -1.18626
O         54.76312        56.97860        -0.56120
H         55.47729        57.44978        -1.04075
O         39.01929        60.24383        -0.23842
H         38.99168        61.10468        -0.70728
O         66.67285        74.11131        -1.60044
H         66.57066        73.54033        -0.80502
O         61.60022        60.88299        -2.23643
H         60.68843        61.24332        -2.24807
O         52.54624        52.72267        -0.78965
H         51.68014        53.14237        -1.01460
O         26.97910        70.25503         1.05886
H         27.65541        70.32589         1.77387
O         53.21300        73.31744        -2.00196
H         53.98112        72.89992        -2.44821
O         40.39339        58.52797         3.59506
H         39.52474        58.41470         4.04458
O         37.65972        44.43448        -3.05876
H         38.23352        45.16321        -3.39247
O         41.69682        52.33899        -1.53134
H         42.60864        52.02120        -1.75241
O         33.46325        59.02748         2.33596
H         34.15767        59.44460         2.89066
O         38.63751        67.80410         3.66452
H         39.48908        68.14167         4.04118
O         59.38212        75.12536        -2.37307
H         58.75168        74.70467        -2.99308
O         57.86939        58.50812         2.69165
H         57.74902        59.43586         2.98557
O         35.09756        65.48173         2.71021
H         35.84205        65.98266         3.11039
O         44.33428        51.93161        -1.06313
H         44.72709        52.77648        -1.37023
O         28.67679        74.06339         1.01180
H         27.78801        73.65598         1.09648
O         48.26012        39.46586         1.10875
H         48.45334        40.36252         1.45039
O         43.58617        50.77240         2.32739
H         43.31648        49.89388         2.66744
O         63.86128        72.59127         0.05951
H         64.31894        71.86627         0.54034
O         51.65329        60.68492         3.30377
H         50.94290        60.19054         3.76287
O         57.50179        71.09169         1.20877
H         57.64334        71.98538         1.58567
H         24.26187        75.16212        -4.16999
H         26.39255        75.19312        -2.95430
H         28.37048        75.31394        -1.59051
H         30.62338        75.36740        -0.64136
H         33.03605        75.31789        -0.38188
H         35.53564        75.23018        -0.07115
H         37.94790        75.17926         0.23013
H         40.37901        75.17189         0.66177
H         42.79831        75.19706         0.95351
H         45.25122        75.23477         1.36578
H         47.64753        75.23278         1.26674
H         50.02849        75.21974         0.76353
H         52.28510        75.17514        -0.14859
H         54.84516        75.18289        -0.57898
H         57.28103        75.16024        -0.93945
H         60.18362        74.71789        -0.51651
H         61.98706        74.77721        -2.95972
H         64.29151        75.00675        -3.10308
H         66.25644        74.99478        -4.25218
H         22.86292        69.40599        -3.56175
H         21.99290        71.49908        -4.52359
H         22.26876        73.92532        -5.00903
H         24.74543        65.21661        -1.94008
H         23.79125        67.30293        -2.70060
H         27.22512        60.96612        -1.67173
H         26.00420        63.03744        -1.69993
H         29.58307        56.63164        -1.20751
H         28.38489        58.78490        -1.42201
H         32.02446        52.41482        -1.23614
H         30.81985        54.54161        -1.22663
H         34.48535        48.19081        -1.50995
H         33.27251        50.28657        -1.30537
H         37.03530        43.72472        -1.22654
H         35.75173        46.01844        -1.75516
H         39.53264        39.50646        -1.70703
H         38.29448        41.66936        -1.70501
H         42.09529        35.31533        -2.08477
H         40.80564        37.36161        -1.73960
H         45.66497        32.32213        -3.19491
H         43.44891        33.37102        -2.85569
H         47.75915        33.45436        -2.50167
H         48.89495        35.33975        -1.30374
H         50.06683        37.25971        -0.61984
H         51.20513        39.47681        -0.51209
H         52.38444        41.52625         0.38150
H         53.59036        43.59990         0.67590
H         54.69115        45.86199         0.06733
H         55.81203        47.78630        -0.29109
H         57.11255        50.26419        -0.56765
H         58.50703        52.21989         0.24571
H         59.38709        54.49703         1.74806
H         60.95298        56.45383         0.33956
H         62.14138        58.55476        -0.03474
H         63.20524        60.72427        -0.95061
H         64.19461        62.83120        -1.82774
H         65.44009        64.95639        -2.13016
H         66.53218        67.08553        -2.76821
H         67.26339        69.12618        -3.94487
H         67.80901        71.10213        -5.26979
H         67.40579        73.48665        -5.81340
