         204
 CSIRO Nanostructure Databank - Neutral Graphene Oxide Data Set
C        -11.11421         0.66248         0.24065
C         -9.87649         1.43083         0.21536
C         -8.63440         0.69830         0.10735
C         -7.42444         1.40563        -0.11974
C         -6.23351         0.67711        -0.38676
C         -5.01798         1.42925        -0.75835
C         -3.68435         0.66451        -0.76871
C         -2.45743         1.43195        -0.58794
C         -1.24721         0.73964        -0.34250
C         -0.00739         1.45917        -0.38945
C          1.23390         0.74402        -0.30696
C          2.46397         1.42691        -0.58595
C          3.67166         0.69927        -0.59946
C          4.92494         1.35774        -1.13725
C          6.18956         0.63244        -0.77510
C          7.44424         1.40633        -0.88686
C          8.75579         0.68477        -0.76124
C          9.90175         1.42228        -0.18868
C         11.08554         0.67821         0.20277
C         -9.86677         2.81414         0.20150
C         -8.64465         3.55754         0.10947
C         -7.41259         2.84577        -0.07659
C         -6.19339         3.55594        -0.15851
C         -4.95708         2.86789        -0.45838
C         -3.74174         3.53350        -0.46526
C         -2.48361         2.84423        -0.61798
C         -1.25651         3.55962        -0.65362
C         -0.02589         2.86504        -0.61742
C          1.22969         3.56951        -0.79487
C          2.42482         2.84863        -0.84252
C          3.69170         3.55432        -1.12338
C          4.98268         2.85998        -0.89240
C          6.15216         3.55728        -0.70904
C          7.40364         2.84141        -0.55914
C          8.55725         3.49549        -0.13564
C          9.78828         2.77261         0.05403
C         -8.63250         4.96799         0.17473
C         -7.42755         5.69428         0.13135
C         -6.18652         4.97941        -0.00777
C         -4.96557         5.68113         0.01954
C         -3.67402         4.92235         0.10084
C         -2.48920         5.72516        -0.33459
C         -1.30092         5.03988        -0.94880
C         -0.00600         5.73882        -0.63969
C          1.21157         5.03224        -0.78135
C          2.42746         5.75631        -0.75327
C          3.68618         5.05488        -1.02602
C          4.94879         5.77700        -0.82441
C          6.29144         5.07977        -0.88773
C          7.35695         5.65034         0.07734
C          8.44940         4.86515         0.32724
C         -7.38431         7.12215         0.23723
C         -6.18169         7.80917         0.28110
C         -4.93271         7.08269         0.21329
C         -3.69200         7.75774         0.32666
C         -2.47263         7.08802        -0.03468
C         -1.23432         7.82614        -0.09768
C         -0.01451         7.13277        -0.35138
C          1.22099         7.84075        -0.25361
C          2.44033         7.15469        -0.48528
C          3.68058         7.86705        -0.43123
C          4.86477         7.14644        -0.78951
C          6.56840         8.01417         0.28862
C          7.27402         6.94296         0.76047
C         -6.10938         9.26334         0.34400
C         -4.94030         9.90974         0.54620
C         -3.66798         9.16217         0.86322
C         -2.41562         9.90051         0.50521
C         -1.22454         9.23877         0.18702
C          0.02674         9.93136         0.20654
C          1.24404         9.24555         0.04817
C          2.50794         9.87503         0.26953
C          3.72480         9.20211         0.09404
C          4.92269         9.81211         0.68113
C          6.14681         9.25342         0.92218
C        -11.11935        -0.68168         0.35277
C         -9.85588        -1.45779         0.61709
C         -8.62045        -0.71342         0.16750
C         -7.42452        -1.42165        -0.05648
C         -6.22131        -0.72270        -0.34683
C         -4.97017        -1.50966        -0.71454
C         -3.69262        -0.75659        -0.44480
C         -2.50725        -1.38542        -0.05986
C         -1.28372        -0.64425        -0.03088
C         -0.02655        -1.28123         0.37992
C          1.24885        -0.63234         0.01231
C          2.46216        -1.36827         0.03845
C          3.69231        -0.68859        -0.28726
C          4.92846        -1.41943        -0.28308
C          6.18957        -0.72554        -0.49884
C          7.43115        -1.47803        -0.40989
C          8.71849        -0.81141        -0.65782
C         10.00037        -1.52083        -0.20995
C         11.14621        -0.67509         0.19501
C         -9.87867        -2.88344         0.13574
C         -8.69840        -3.58865        -0.02705
C         -7.42791        -2.87614        -0.02974
C         -6.23107        -3.57910        -0.01384
C         -4.95655        -2.88825        -0.10654
C         -3.78525        -3.52334         0.22162
C         -2.50760        -2.81951         0.24035
C         -1.33703        -3.47726         0.56291
C         -0.04535        -2.75905         0.68277
C          1.23006        -3.50502         0.54290
C          2.46398        -2.78305         0.29793
C          3.69615        -3.49865         0.23646
C          4.93223        -2.80805        -0.01940
C          6.16898        -3.54090         0.03848
C          7.42122        -2.84494        -0.12081
C          8.66185        -3.56483         0.14779
C          9.86504        -2.87968         0.28876
C         -8.67559        -5.01457        -0.20673
C         -7.47839        -5.73124        -0.16507
C         -6.23621        -5.02025         0.04503
C         -5.04528        -5.70545         0.25454
C         -3.84697        -4.94432         0.75348
C         -2.55703        -5.69580         0.57724
C         -1.33751        -4.92698         0.86081
C         -0.01762        -5.65954         0.94641
C          1.22401        -4.87734         0.70886
C          2.49164        -5.59318         0.81925
C          3.72982        -4.90482         0.47006
C          4.93152        -5.64255         0.39770
C          6.16574        -4.93836         0.23505
C          7.40870        -5.67659         0.27939
C          8.61337        -4.98072         0.32722
C         -7.42004        -7.15707        -0.26786
C         -6.21312        -7.84013        -0.16699
C         -4.98901        -7.12311         0.11516
C         -3.75518        -7.80487         0.18565
C         -2.52212        -7.07214         0.41388
C         -1.25575        -7.78248         0.39005
C         -0.02755        -7.11294         0.62120
C          1.18859        -7.81191         0.48456
C          2.47060        -7.14463         0.75061
C          3.71935        -7.80604         0.37629
C          4.92205        -7.08539         0.37228
C          6.17079        -7.79850         0.21352
C          7.37239        -7.10702         0.25236
C         -6.14062        -9.27397        -0.32026
C         -4.94789        -9.93006        -0.26392
C         -3.70754        -9.22171        -0.04251
C         -2.48250        -9.88001        -0.09181
C         -1.24555        -9.18390         0.09019
C         -0.01948        -9.86273        -0.04747
C          1.20801        -9.19129         0.11879
C          2.46179        -9.87338        -0.02855
C          3.68320        -9.21092         0.07337
C          4.94373        -9.89782        -0.08454
C          6.12696        -9.22887         0.02256
O          2.55301        -6.43111         2.02275
O          9.60192        -1.43557        -1.63464
O          3.67159         4.35061        -2.36398
O         -5.02740        -1.70164        -2.17018
H         -4.92860        -0.80003        -2.56433
O         -4.02628        -4.83319         2.21455
H         -3.14795        -4.63475         2.60727
O          8.28420         1.13295        -2.08145
O         -0.72977        -5.27435         2.17305
O         -1.48575         5.15521        -2.41627
H         -0.67543         4.79996        -2.84096
O         -4.42203         1.00848        -2.02783
O          6.02871         7.88769        -1.00431
O         -3.44244         4.70112         1.56379
H         -3.41312         5.58891         1.98364
O         -0.03246        -1.78083         1.78197
O         -3.65238         9.03437         2.35624
H         -4.56569         8.80754         2.63473
O         -9.76294        -1.55689         2.09226
H         -8.94569        -2.05989         2.29714
O          6.82374         5.25532        -2.22899
H          6.11235         5.00695        -2.85793
O          4.81356         1.23117        -2.60066
H          5.68358         1.47779        -2.98350
H         12.05437        -1.18465         0.55077
H         11.95249         1.25862         0.55345
H         10.64736         3.31627         0.47626
H          9.27689         5.26267         0.93535
H          7.79949         7.02763         1.72480
H          6.84095         9.77726         1.59837
H          4.72725        10.78441         1.16440
H          2.51662        10.90715         0.65243
H          0.03633        11.00494         0.44655
H         -2.39146        10.98676         0.68486
H         -4.91687        11.00961         0.58437
H         -7.04028         9.83269         0.19718
H         -8.33204         7.67848         0.29843
H         -9.58420         5.50757         0.29349
H        -10.81567         3.36660         0.27683
H        -12.06094         1.21330         0.12869
H        -12.07147        -1.23377         0.35759
H        -10.83812        -3.42378         0.14085
H         -9.63086        -5.55127        -0.30736
H         -8.35029        -7.71907        -0.44131
H         -7.07217        -9.82945        -0.50401
H         -4.90670       -11.02036        -0.40384
H         -2.45380       -10.96038        -0.29817
H         -0.02087       -10.93308        -0.30094
H          2.44884       -10.95057        -0.25102
H          4.93099       -10.98127        -0.27294
H          7.07964        -9.76905        -0.08092
H          8.32283        -7.65878         0.19782
H          9.55851        -5.53335         0.43299
H         10.74278        -3.39085         0.71163
