         260
 CSIRO Nanostructure Databank - Neutral Graphene Oxide Data Set
C         30.21754        32.05588        -0.63972
C         30.27951        33.18461         0.02616
C         30.36065        36.01229         1.59139
C         30.45604        37.07694         2.20499
C         30.30751        40.17810         2.19721
C         30.25160        41.10735         1.37687
C         32.56579        29.24564        -1.52144
C         31.50901        29.91879        -1.42689
C         32.63500        31.79497        -0.31870
C         31.23072        31.18268        -0.86570
C         32.61940        33.35563        -0.33098
C         31.35520        33.93651         0.37038
C         32.78848        35.84971         1.46286
C         31.46190        35.10277         1.26445
C         32.93344        37.21448         2.23662
C         31.57258        37.95477         2.53239
C         32.77770        40.34944         2.44015
C         31.50182        39.43762         2.59813
C         32.58182        41.60664         1.55076
C         31.34039        41.98038         1.02093
C         32.41810        43.54874        -0.45557
C         31.41281        43.08071         0.10942
C         35.46304        27.83754        -1.96383
C         35.16620        29.12166        -1.57839
C         33.90353        29.86532        -1.63212
C         35.19840        31.92449        -0.71146
C         33.88602        31.27187        -1.04413
C         35.15979        33.45451        -0.62091
C         33.95633        33.88191         0.27679
C         35.13610        36.24611         0.39130
C         33.90564        35.39942         0.54550
C         35.26329        37.49142         1.23776
C         33.99225        38.17535         1.67556
C         35.25167        40.31644         1.82378
C         33.98605        39.51861         1.91352
C         35.15002        41.80581         1.53568
C         33.80239        42.39052         1.20845
C         35.00798        43.53988        -0.78635
C         33.77585        43.45169         0.07664
C         35.23660        44.74245        -1.66108
C         37.83227        27.70739        -1.84271
C         36.45958        27.04027        -1.87949
C         37.67372        28.96299        -0.90719
C         36.30752        29.68244        -0.69504
C         37.67537        31.91452        -0.74035
C         36.35551        31.21477        -0.76253
C         37.69899        33.32633        -0.20972
C         36.41926        34.05101        -0.00814
C         37.72656        36.30145         0.08625
C         36.42895        35.56473        -0.00057
C         37.76682        37.85921         0.34275
C         36.56481        38.23612         1.23452
C         37.73073        40.40674         1.37827
C         36.55823        39.68246         1.52385
C         37.68039        41.89540         1.62260
C         36.38236        42.46419         1.02005
C         37.59393        43.92641        -0.54875
C         36.32167        43.40502         0.03990
C         37.65579        44.69720        -1.85633
C         36.28409        45.11470        -2.19279
C         40.18849        24.70555        -1.39701
C         39.20913        25.45790        -1.59218
C         40.22783        27.50800        -1.21243
C         39.02272        26.87231        -1.43813
C         40.25413        29.03389        -1.29742
C         38.97368        29.66629        -0.71277
C         40.20347        31.85411        -0.14251
C         38.96926        31.16684        -0.67510
C         40.22528        33.35157         0.00034
C         38.99590        34.07620        -0.46558
C         40.29679        36.24517         0.65257
C         38.93616        35.55696         0.67601
C         40.26647        37.65355         0.98706
C         39.07144        38.37679         0.97502
C         40.24669        40.57091         1.28136
C         39.02684        39.78603         1.23403
C         40.25255        41.95934         1.22365
C         38.94001        42.65192         1.17929
C         39.99868        44.81606         0.05035
C         38.80681        43.89028         0.32749
C         40.14679        45.35652        -1.37855
C         38.94042        45.33104        -2.30659
C         40.17613        46.83653        -3.69550
C         39.06354        46.37955        -3.33345
C         42.81827        24.70833        -0.94626
C         41.55084        25.22700        -1.47039
C         42.74582        27.50037        -0.69785
C         41.52713        26.78907        -1.25449
C         42.81248        28.96702        -0.78810
C         41.49798        29.64278        -0.62757
C         42.76010        31.85002        -0.49833
C         41.49026        31.06930        -0.18814
C         42.77808        33.31641         0.05138
C         41.51419        34.12789         0.12711
C         42.66694        36.09568         1.45045
C         41.45796        35.50430         0.72817
C         42.82080        37.60392         1.25824
C         41.52249        38.32735         1.39647
C         42.84087        40.57613         1.40428
C         41.52292        39.83766         1.51000
C         42.78561        41.92390         0.67315
C         41.50852        42.76711         1.06202
C         42.48149        44.98245         0.07229
C         41.31853        44.20420         0.53832
C         42.59622        45.80561        -1.01274
C         41.28653        46.40237        -1.57133
C         42.70086        47.38508        -3.26327
C         41.41287        46.97055        -3.03493
C         43.87850        25.33330        -0.78562
C         45.29282        27.51684        -0.54079
C         44.04779        26.74662        -0.41011
C         45.30796        28.90934        -0.64127
C         44.03667        29.65577        -0.56879
C         45.27313        31.82160        -0.24248
C         44.02275        31.04319        -0.28957
C         45.28220        33.09063         0.57140
C         43.97593        33.83287         0.79450
C         45.24867        36.02975         1.15622
C         43.95513        35.26177         1.28470
C         45.28695        37.49824         1.50931
C         44.01056        38.26410         1.35533
C         45.36850        40.36599         0.78955
C         44.11471        39.76518         1.34903
C         45.36633        41.68689         0.32704
C         44.19041        42.53124         0.52400
C         45.43106        44.45838        -0.46205
C         44.39294        43.88268         0.33390
C         45.18859        45.68381        -1.16216
C         43.92210        46.27114        -1.47752
C         43.73366        47.16320        -2.53949
C         47.73021        27.47877        -0.41358
C         46.60942        26.96777        -0.59822
C         47.98902        28.90021        -0.66596
C         46.60089        29.65034        -0.79363
C         47.82310        31.76901        -0.06578
C         46.57864        31.14177        -0.56326
C         47.82161        33.23441         0.22318
C         46.56806        33.80257         0.81222
C         47.83569        36.00506         1.21653
C         46.54559        35.29752         0.97878
C         47.85900        37.36263         1.18927
C         46.61969        38.18964         1.38286
C         47.79819        40.09309         0.18444
C         46.70073        39.71682         1.17660
C         47.75412        41.42619        -0.49373
C         46.58463        42.31745        -0.20923
C         47.87306        44.28859        -1.15123
C         46.61058        43.64439        -0.62294
C         47.55197        45.57549        -1.78296
C         46.41409        46.05960        -1.81703
C         50.46902        29.25585         0.07594
C         49.15315        29.63781        -0.11961
C         50.00457        31.70365         1.00857
C         48.94346        31.02412         0.21262
C         50.33982        33.10690         0.56273
C         49.09352        33.94744         0.53309
C         50.42672        35.86703         1.51830
C         49.06808        35.13863         1.47109
C         50.43864        37.40829         1.36421
C         49.15692        38.02120         0.88447
C         50.39532        40.20663         0.32982
C         49.13405        39.39258         0.30898
C         50.36415        41.51543        -0.44244
C         49.05608        41.94267        -1.16973
C         50.33173        43.77458        -2.12272
C         49.09428        43.47660        -1.34201
C         51.67842        29.45288         0.37402
C         52.91259        31.40713         0.99706
C         52.90060        29.98931         0.72938
C         52.61907        32.58569         1.17764
C         51.68466        33.68110         0.86647
C         52.76128        35.98676         1.27642
C         51.70683        35.10338         1.28510
C         52.77657        37.26590         1.22649
C         51.70329        38.11648         1.00499
C         52.73436        40.26312         0.11315
C         51.68810        39.46004         0.52230
C         52.76158        41.38545        -0.50678
C         51.67521        42.07333        -0.99407
C         51.40200        43.22650        -1.77340
O         43.66273        40.46628         2.58392
O         37.06574        33.39078         1.09873
O         33.83377        43.84528         1.44962
O         41.77617        26.13561        -2.55201
O         32.34068        34.82543         2.41639
O         50.42548        36.77696         2.67086
O         31.53876        38.65055         3.79829
O         34.07414        36.27368        -0.60605
O         39.98914        32.50110         1.15041
O         38.68442        43.98072         1.78035
O         47.45444        29.31228        -1.93551
O         43.16685        27.10307         0.67618
O         38.38446        28.89293         0.37208
O         41.48849        43.89901         1.96174
O         37.78547        43.25242        -1.86539
O         41.42303        39.00665         2.69668
O         38.70615        35.09766         1.85944
O         43.86112        34.13823         2.21458
O         48.94414        44.24943        -0.15024
O         40.03347        44.35517        -2.40574
O         46.03450        37.86198         2.70458
O         35.30310        41.32238         2.88337
O         43.56323        44.82681         0.93076
O         41.44998        30.02267         0.81291
O         36.24133        37.32611         2.32019
O         49.24655        38.24731        -0.58508
O         50.39050        31.26686         2.07723
O         33.81963        31.07023        -2.48158
O         38.48299        31.72975        -1.93939
O         48.47538        34.11197        -0.76320
O         40.29763        29.35071        -2.67211
O         46.01443        32.95137         1.84258
O         50.26733        41.49219         1.00711
O         47.31321        40.18641        -1.17894
O         45.88233        31.93963        -1.58973
O         37.66597        38.48329        -0.86130
O         51.24792        33.39625        -0.52913
O         45.82326        35.86991        -0.18335
O         42.38585        34.20154        -1.05201
O         37.15154        36.02538        -1.19923
O         42.69153        31.95678        -1.94413
H         43.49245        32.41773        -2.27595
O         39.14970        34.52528        -1.73976
H         38.31430        34.95868        -2.05803
O         37.67090        42.03634         3.05401
H         37.70438        42.99408         3.26620
O         35.87401        29.37003         0.64247
H         36.67470        29.14850         1.17528
O         54.02820        29.26480         0.77809
H         54.79026        29.81733         1.03975
O         34.23463        33.23312         1.51394
H         33.62349        33.57080         2.21143
O         32.54245        33.79113        -1.69515
H         31.70300        33.46325        -2.08486
O         33.05088        40.81408         3.75619
H         33.03041        40.04584         4.36774
O         39.76668        45.99020         0.86656
H         39.63795        45.67118         1.79169
O         42.42639        41.57482        -0.70606
H         43.19533        41.14771        -1.14131
O         41.01027        47.57145        -0.79678
H         40.66927        47.30305         0.09205
O         34.96889        42.39857        -1.63660
H         35.77985        42.40176        -2.19616
O         33.47330        36.87118         3.51532
H         32.96487        36.10892         3.87145
O         47.10379        40.28444         2.43881
H         46.49734        39.93278         3.12941
O         32.70516        31.29243         0.99793
H         31.99366        31.69012         1.54207
O         48.87688        34.57275         2.78810
H         49.08843        35.27141         3.44763
O         42.30779        36.01085         2.85146
H         42.44370        35.08193         3.14826
O         35.13265        34.00133        -1.93603
H         34.23534        33.87868        -2.32705
O         49.11207        41.39720        -2.49067
H         48.58978        40.55895        -2.49741
O         38.04536        28.17989        -3.14663
H         38.97411        28.62830        -3.19882
