         276
 CSIRO Nanostructure Databank - Neutral Graphene Oxide Data Set
C        -11.22507         0.71544        -0.53246
C        -10.07700         1.54382        -0.18962
C         -8.87397         0.86671         0.43982
C         -7.54420         1.52855        -0.01210
C         -6.27498         0.75740        -0.18071
C         -5.02376         1.38042        -0.80034
C         -3.82028         0.87860         0.06542
C         -2.49502         1.53032        -0.46090
C         -1.26614         0.72216        -0.73442
C          0.00323         1.39795        -1.15509
C          1.18382         0.98629        -0.27430
C          2.55742         1.61622        -0.51564
C          3.82251         0.82568        -0.44255
C          5.16816         1.55293        -0.50855
C          6.31822         0.73866        -1.04794
C          7.60717         1.49057        -0.74644
C          8.59226         0.60820        -0.11541
C         10.43792         1.76657        -0.02611
C         11.41723         0.76920        -0.45705
C        -10.08439         2.89903        -0.32061
C         -8.80642         3.68050        -0.06184
C         -7.70728         2.83523        -0.78509
C         -6.41478         3.59874        -1.07671
C         -5.09922         2.91576        -0.78105
C         -3.81788         3.68928        -0.90586
C         -2.49376         2.96386        -0.88937
C         -1.29225         3.65927        -1.48487
C          0.00139         2.83550        -1.73176
C          1.28205         3.66357        -1.41922
C          2.59283         2.86244        -1.39995
C          3.90039         3.71713        -1.29773
C          5.18915         2.98579        -1.04108
C          6.46233         3.68099        -0.66869
C          7.61654         2.96594        -0.46605
C          8.87092         3.68094        -0.14754
C         10.18785         3.04736        -0.41352
C         -8.80038         5.15549        -0.39784
C         -7.61545         5.86127        -0.65323
C         -6.41002         5.09878        -1.10695
C         -5.09719         5.84824        -1.15390
C         -3.80974         5.13181        -1.30816
C         -2.55957         5.95570        -0.99978
C         -1.27645         5.14348        -1.23998
C         -0.01800         5.92246        -0.87697
C          1.27474         5.12309        -1.05596
C          2.52866         5.72335        -0.50413
C          3.81762         5.26150        -1.17889
C          5.10951         5.87356        -0.57577
C          6.42159         5.14033        -0.46044
C          7.54857         5.73228         0.32165
C          8.79373         4.98237         0.28867
C         -7.49104         7.24001        -0.40875
C         -6.25224         8.04126        -0.74367
C         -5.02222         7.18386        -0.50990
C         -3.95825         7.54315         0.24032
C         -2.75334         6.56740         0.42305
C         -1.46282         7.25877         1.01187
C         -0.13572         6.58419         0.50557
C          1.14266         7.23839         0.92710
C          2.44987         6.75949         0.37121
C          3.66620         7.31888         1.01902
C          4.99781         6.95183         0.46740
C          6.21710         7.84609         0.63732
C          7.45356         6.98983         0.84292
C         -6.14211         9.35925        -0.01994
C         -5.08118         9.72010         0.71379
C         -3.90282         8.82755         1.03438
C         -2.54631         9.49761         0.86944
C         -1.39949         8.76833         0.89576
C         -0.09201         9.37964         1.12398
C          1.06417         8.68032         1.30218
C          2.37190         9.43328         1.47548
C          3.49305         8.50093         1.96545
C          4.80428         9.22185         2.21548
C          5.99882         8.88606         1.71046
C        -11.28023        -0.61497        -0.32200
C        -10.20206        -1.41675         0.37205
C         -8.84701        -0.67631         0.35407
C         -7.58497        -1.41818         0.01414
C         -6.28079        -0.72772        -0.22225
C         -5.09061        -1.39003        -0.36210
C         -3.81078        -0.70376         0.16170
C         -2.47763        -1.35437        -0.31603
C         -1.23792        -0.61655        -0.11523
C          0.01636        -1.29767         0.19721
C          1.30906        -0.52556         0.02238
C          2.49455        -1.35039        -0.47944
C          3.78881        -0.62850        -0.91940
C          5.11236        -1.40192        -0.71705
C          6.29568        -0.74529        -0.89337
C          7.66632        -1.42410        -1.13054
C          8.72303        -0.71757        -0.31422
C         10.02113        -1.35110         0.17053
C         11.22757        -0.57624        -0.39879
C        -10.13493        -2.84416        -0.24941
C         -8.89349        -3.63555         0.10087
C         -7.63965        -2.89758        -0.21001
C         -6.34993        -3.62468        -0.13307
C         -5.06206        -2.87898        -0.36277
C         -3.77100        -3.60844        -0.20418
C         -2.46970        -2.85307        -0.35832
C         -1.17377        -3.59241        -0.14868
C          0.07861        -2.79194         0.06897
C          1.35602        -3.45922         0.57063
C          2.48204        -2.84795        -0.29145
C          3.76011        -3.63121        -0.53305
C          5.05418        -2.89923        -0.79423
C          6.36096        -3.65780        -0.74478
C          7.65954        -2.92572        -0.85016
C          8.91313        -3.58229        -0.35703
C         10.06592        -2.82930        -0.12438
C         -8.84570        -4.99175         0.24045
C         -7.59443        -5.74035         0.42100
C         -6.33562        -4.92314         0.64952
C         -5.02926        -5.68999         0.52769
C         -3.74508        -4.87545         0.63487
C         -2.48269        -5.67353         0.35509
C         -1.18482        -4.98005         0.34723
C          0.01767        -5.65474         0.62888
C          1.24955        -4.97008         0.54856
C          2.51745        -5.72368         0.46044
C          3.74259        -5.10467        -0.15565
C          5.07483        -5.80204         0.00025
C          6.35648        -5.08192        -0.25558
C          7.63256        -5.62629         0.40850
C          8.89446        -4.96796        -0.10415
C         -7.54283        -7.09132         0.57062
C         -6.30635        -7.72291         1.17900
C         -5.03338        -7.01628         0.76357
C         -3.77649        -7.76611         1.11659
C         -2.49679        -7.12198         0.62516
C         -1.24389        -7.93696         0.90248
C          0.00198        -7.08069         1.21477
C          1.27381        -7.88080         0.90826
C          2.56702        -7.11600         1.02442
C          3.86521        -7.86025         0.96030
C          5.17756        -7.03963         0.90968
C          6.41459        -7.81740         0.48457
C          7.58519        -7.13953         0.31536
C         -6.16359        -9.23637         1.11544
C         -5.00347        -9.90540         0.96954
C         -3.73665        -9.19411         0.53025
C         -2.31652        -9.76601         0.88500
C         -1.15698        -9.19602         0.05788
C          0.01678        -9.82830        -0.20764
C          1.30556        -9.22079         0.22805
C          2.64128        -9.75613        -0.12678
C          3.81464        -9.21695         0.34017
C          5.09070        -9.86335         0.07650
C          6.29064        -9.23457         0.20125
O         -3.17760         5.59960         1.29176
O          7.15875         1.20607        -2.11379
O         -2.52230        -2.06855        -1.58762
O         -8.00336        -1.19121         1.43615
O          7.09393        -3.61410        -2.01555
O         -1.43953         4.58955        -2.59511
O          9.44098         1.22383         0.82164
O          3.20638         1.36046         0.78128
O          1.40642         4.70155        -2.44976
O         -6.58919         1.46557         1.07198
O         -4.48087         5.64190        -2.49794
O          4.50994         6.29719         1.69344
O          2.02574        -2.25181        -1.52817
O         -3.82315        -1.10993         1.48999
O         -2.60892        -6.65615        -0.75966
O         -6.56557         4.30814        -2.34234
O         -0.23682        -3.31544        -1.24495
O          3.22001        -7.54789         2.25541
O         -4.49879         3.53506         0.37580
O          4.77604         3.29472        -2.39605
O          5.78009        -5.97561        -1.25842
O         -2.09254         2.59346         0.46583
O         -7.07650        -3.52847        -1.40949
O          2.85120        -5.87460        -1.01133
O         -0.64405         0.49448        -2.07530
O          4.22651        -3.39752        -1.89365
O          0.57310         6.06630         1.65260
O          1.27280        -9.07343         1.73232
O         -4.43213        -3.62285        -1.48884
O         -1.69925        -8.92501         1.97764
O          0.82623        -0.81807         1.34591
O          6.11086         6.03855        -1.61947
O          2.62169         2.21698        -2.68783
H          2.51323         2.90914        -3.37529
O          5.59562         1.69240         0.88951
H          4.80156         1.90969         1.43280
O         -6.31821         8.32335        -2.17532
H         -6.02594         7.52305        -2.66330
O         -6.37052        -4.52596         2.06377
H         -6.49758        -5.36747         2.57259
O          6.40652         8.57979        -0.60213
H          6.51259         7.90681        -1.31794
O        -10.11271        -2.66008        -1.67507
H         -9.72144        -3.45490        -2.09354
O          0.11118         7.04438        -1.77387
H          0.22852         6.68303        -2.67892
O         -6.45727        -7.40563         2.61347
H         -5.58895        -7.63414         3.03203
O         -8.21585         2.41219        -2.07328
H         -8.02574         3.14125        -2.71045
O          1.68801        -3.12789         1.93916
H          0.97251        -3.44473         2.53011
O          2.73621         9.98698         0.20563
H          3.61231        10.41708         0.29284
O         -4.00935         8.48649         2.43973
H         -3.20157         7.95791         2.67317
O         -8.51406         3.73965         1.35266
H         -8.76314         2.86616         1.76699
O         -3.82721        -7.79878         2.56568
H         -2.98784        -8.20105         2.89861
O         -4.81868         0.92614        -2.14402
H         -5.60242         1.14346        -2.69079
O         -8.99868         1.15444         1.85966
H         -8.19227         0.76799         2.27907
O        -10.59564        -1.55922         1.75108
H         -9.77086        -1.58055         2.28712
O         -3.81776        -9.13684        -0.90878
H         -3.45863        -8.27661        -1.22720
O          0.02239        -6.85830         2.64170
H          0.21356        -7.73047         3.05579
O         10.10708        -1.26926         1.61948
H          9.98991        -0.31605         1.84705
O         -4.00597         1.33580         1.38701
H         -4.00500         0.53234         1.97246
O          0.03243         2.61230        -3.14937
H         -0.07963         3.49176        -3.57739
O          7.64559        -5.19473         1.79970
H          6.99612        -5.75312         2.29858
O          3.73710         5.77893        -2.51786
H          4.52711         5.44124        -2.99680
O          5.43491        -6.53670         2.24480
H          4.67687        -6.81001         2.82224
O         -3.62104        -4.45456         2.01544
H         -4.51351        -4.14683         2.31697
O         -1.55541         7.03515         2.42861
H         -2.04638         6.16900         2.51301
O          3.04923         7.97834         3.23386
H          3.57140         7.16508         3.41001
O          3.69547        -0.47683        -2.34979
H          3.42527        -1.35114        -2.71899
O          7.98270        -1.25659        -2.52449
H          7.46024        -1.92810        -3.02010
O         -2.48807         7.05754        -1.90361
H         -3.09134         6.85254        -2.65879
O          0.74153         1.63202         0.94899
H          1.35563         1.37955         1.67395
H         12.04405        -1.20308        -0.79496
H         12.33972         1.14152        -0.93180
H         10.92684         3.62125        -0.99303
H          9.71248         5.50822         0.58898
H          8.33558         7.45204         1.31327
H          6.89049         9.45591         2.01777
H          4.75669        10.02380         2.97042
H          2.23298        10.26432         2.22407
H         -0.06761        10.47623         1.22882
H         -2.49649        10.59718         0.92468
H         -5.07526        10.71198         1.19354
H         -6.96797        10.07233        -0.16976
H         -8.33157         7.75148         0.08871
H         -9.69814         5.73338        -0.12118
H        -10.97648         3.41187        -0.71307
H        -12.08013         1.22377        -1.00493
H        -12.18778        -1.16442        -0.61420
H        -11.06213        -3.40885         0.05119
H         -9.78510        -5.56556         0.29657
H         -8.45802        -7.69736         0.47920
H         -7.07268        -9.81018         1.35921
H         -4.99980       -11.00656         1.02059
H         -2.28086       -10.85169         1.13045
H          0.01871       -10.89187        -0.49449
H          2.68026       -10.70383        -0.68603
H          5.06456       -10.91331        -0.25054
H          7.21495        -9.78770        -0.02301
H          8.49299        -7.68541         0.01401
H          9.84638        -5.45147         0.17332
H         10.97831        -3.36697         0.18247
