         404
 CSIRO Nanostructure Databank - Neutral Graphene Oxide Data Set
C          1.93381         2.05048         2.98884
C          1.81762         3.43233         2.76056
C          3.11420         1.38744         2.70675
C          2.87452         4.17401         2.21144
C          1.82070         6.36545         2.72922
C          1.80238         7.77681         2.67612
C          2.80381         5.62210         2.09798
C          2.84564         8.50749         2.10663
C          1.71382        10.71115         2.44983
C          1.74243        12.09846         2.50041
C          2.87130         9.95892         2.13493
C          2.93663        12.81597         2.30229
C          1.81193        15.05063         2.63191
C          1.89344        16.41840         2.80912
C          2.98109        14.26412         2.43169
C          3.13933        17.09368         2.75495
C          3.22634        18.51612         2.90537
C          4.21007         2.08994         2.13236
C          4.07846         3.48595         1.84238
C          5.43134         1.43070         1.85876
C          5.16156         4.15905         1.20581
C          3.82827         6.34721         1.30950
C          3.94694         7.81596         1.49096
C          5.03119         5.57744         0.80293
C          5.08737         8.50280         1.08931
C          4.08043        10.63509         1.85296
C          4.13906        12.07128         2.00833
C          5.23556         9.90846         1.38817
C          5.38022        12.71269         1.95697
C          4.22835        14.92622         2.40184
C          4.32369        16.33645         2.52882
C          5.45788        14.13003         2.30760
C          5.57768        17.02628         2.34131
C          4.42373        19.16822         2.77189
C          5.62175        18.45052         2.44128
C          6.49938         2.10829         1.26098
C          6.34313         3.48398         0.90531
C          7.76694         1.46194         1.06164
C          7.39573         4.15222         0.10556
C          6.26872         6.31834         0.44994
C          6.19044         7.79553         0.39227
C          7.42223         5.64623         0.11524
C          7.47273         8.54629         0.12374
C          6.47773        10.56402         1.24120
C          6.66130        11.91228         1.89546
C          7.59957         9.93914         0.62395
C          7.84464        12.69136         1.36248
C          6.76855        14.86041         2.08386
C          6.75133        16.33432         1.95996
C          7.89209        14.08643         1.51854
C          7.90552        17.03002         1.51716
C          6.84148        19.11791         2.22215
C          7.98183        18.46203         1.72106
C          8.82619         2.03047         0.38032
C          8.63470         3.37673        -0.26830
C         10.10421         1.35958         0.46243
C          9.81456         4.19879        -0.69525
C          8.66420         6.35496        -0.17854
C          8.71514         7.77012        -0.11240
C          9.84155         5.65045        -0.56470
C          9.91576         8.46695        -0.34330
C          8.80747        10.60959         0.41452
C          8.94376        11.99873         0.75858
C          9.86075         9.97203        -0.46726
C         10.16420        12.66962         0.49001
C          9.04474        14.81666         1.17301
C          9.02993        16.22941         1.07178
C         10.27798        14.07441         0.89176
C         10.12050        16.83422         0.39557
C          9.20300        19.24772         1.60266
C         10.20087        18.94328         0.70031
C         11.11659         1.56397        -0.46148
C         10.84138         3.57232        -1.33202
C         12.50132         1.29150        -0.37485
C         12.12240         4.18266        -1.71152
C         11.02049         6.36510        -0.90078
C         11.08636         7.77237        -0.73231
C         12.18705         5.68091        -1.51615
C         12.32316         8.49513        -1.01028
C         11.21729        10.63265        -0.40985
C         11.29842        12.00458        -0.08119
C         12.36566         9.92239        -0.84546
C         12.51259        12.73538        -0.37399
C         11.53620        14.85347         0.54241
C         11.42035        16.31491         0.31107
C         12.58537        14.13974        -0.18814
C         12.57917        17.08978         0.00389
C         11.55728        19.37189         0.51949
C         12.58042        18.56583        -0.00065
C         13.50937         1.97723        -1.09904
C         13.37647         3.32930        -1.75837
C         14.78873         1.38860        -1.05997
C         14.67081         4.13623        -1.88618
C         13.50286         6.35541        -1.52094
C         13.50581         7.79803        -1.35940
C         14.66296         5.62302        -1.77428
C         14.70830         8.52164        -1.62029
C         13.59105        10.63703        -1.08715
C         13.63759        12.05083        -0.92299
C         14.76311         9.92449        -1.49880
C         14.83373        12.78633        -1.25472
C         13.71354        14.89778        -0.56302
C         13.77121        16.30674        -0.24680
C         14.87190        14.22326        -1.06864
C         15.07004        16.85787        -0.19487
C         13.69904        19.32315        -0.59145
C         15.01395        18.98491        -0.43864
C         15.99352         2.03643        -1.41956
C         15.96946         3.45710        -1.68069
C         17.22638         1.35404        -1.33929
C         17.14828         4.16401        -1.84241
C         15.93619         6.29676        -1.84399
C         15.91044         7.77089        -2.01469
C         17.13913         5.59825        -1.91759
C         17.20909         8.53375        -2.10538
C         16.00192        10.65736        -1.70843
C         15.98599        12.08582        -1.65274
C         17.22095         9.98714        -1.91456
C         17.23489        12.79847        -1.96660
C         16.06119        14.95252        -1.27209
C         16.18019        16.30746        -0.85351
C         17.26464        14.29120        -1.78446
C         17.35770        17.11035        -1.19860
C         16.19347        19.37762        -1.17301
C         17.28433        18.55880        -1.38850
C         18.45365         1.99860        -1.61301
C         18.41172         3.41658        -2.03294
C         19.68820         1.35772        -1.50439
C         19.71593         4.16007        -2.20859
C         18.44264         6.30949        -1.79497
C         18.47845         7.80996        -1.80799
C         19.71921         5.62972        -2.05415
C         19.74652         8.50423        -2.09520
C         18.49482        10.66220        -1.99194
C         18.51848        12.07230        -1.95373
C         19.72165         9.94028        -2.16610
C         19.74744        12.79141        -2.00882
C         18.56247        14.92445        -1.33937
C         18.53433        16.42241        -1.53957
C         19.77849        14.21297        -1.87234
C         19.75907        17.08952        -1.84803
C         18.43817        19.22259        -2.12538
C         19.76233        18.51447        -1.98990
C         20.93039         2.05700        -1.61882
C         20.97362         3.45476        -1.90265
C         22.15797         1.38796        -1.44341
C         22.18157         4.16317        -1.88241
C         20.90333         6.33310        -2.15242
C         20.91996         7.77034        -2.22004
C         22.18066         5.57139        -2.46504
C         22.16608         8.45988        -2.72765
C         20.96028        10.64765        -2.27832
C         20.97348        12.07437        -2.17970
C         22.18783         9.94008        -2.42310
C         22.21181        12.77915        -2.23164
C         20.98308        14.91804        -1.99290
C         20.98119        16.36638        -1.95875
C         22.21618        14.20982        -2.16615
C         22.20653        17.06925        -2.08433
C         20.95024        19.20096        -2.10408
C         22.20417        18.50887        -2.10371
C         23.37995         2.07312        -1.36890
C         23.38712         3.51382        -1.50518
C         24.57029         1.22820        -1.35280
C         24.60097         4.31625        -1.46607
C         23.43433         6.37570        -2.18822
C         23.44640         7.74624        -2.35622
C         24.65742         5.66860        -1.91774
C         24.68662         8.48693        -2.36927
C         23.41816        10.62656        -2.40970
C         23.43858        12.06217        -2.32915
C         24.66065         9.88875        -2.48455
C         24.67864        12.78573        -2.30500
C         23.44385        14.92441        -2.20180
C         23.44182        16.35804        -2.16314
C         24.67981        14.21737        -2.24573
C         24.67211        17.06586        -2.19185
C         23.41773        19.20122        -2.13830
C         24.65765        18.50981        -2.14971
C         25.76597         1.61079        -0.80314
C         25.79899         3.80608        -0.93999
C         27.09142         1.08988        -0.89709
C         27.07216         4.28208        -1.31513
C         25.91188         6.33388        -1.99231
C         25.94082         7.76487        -2.25176
C         27.11975         5.58266        -1.85419
C         27.16111         8.43865        -2.29120
C         25.91179        10.64919        -2.61534
C         25.91213        12.09725        -2.34579
C         27.24019         9.89203        -2.50328
C         27.14162        12.78770        -2.19338
C         25.91547        14.93079        -2.23382
C         25.90978        16.36400        -2.22279
C         27.15006        14.22077        -2.16087
C         27.15007        17.07721        -2.21582
C         25.87018        19.20575        -2.09022
C         27.12003        18.53006        -2.10516
C         28.22248         1.92301        -0.83128
C         28.25998         3.36728        -1.28472
C         29.46307         1.29257        -0.59886
C         29.61137         4.00238        -1.54439
C         28.42510         6.22267        -2.15386
C         28.43726         7.71943        -2.24568
C         29.70810         5.48638        -1.86532
C         29.69399         8.48370        -1.79641
C         28.41360        10.62603        -1.96570
C         28.36411        12.07729        -1.94034
C         29.51744         9.92138        -1.51081
C         29.53234        12.81684        -1.65881
C         28.38471        14.93838        -2.05782
C         28.36875        16.36908        -2.15052
C         29.60114        14.22984        -1.81441
C         29.64447        17.08705        -2.21980
C         28.28850        19.25110        -1.86927
C         29.59476        18.64311        -2.01801
C         30.70957         1.94367        -0.57248
C         30.92701         3.28927        -1.24322
C         31.81509         1.29285        -0.03598
C         31.94303         4.14479        -0.51067
C         31.01354         6.26531        -1.56737
C         30.79625         7.72949        -1.17934
C         31.94706         5.54184        -0.60420
C         31.87077         8.44151        -0.59010
C         30.65497        10.61870        -0.90196
C         30.67615        12.11568        -1.05585
C         31.90740         9.87424        -0.62776
C         31.99932        12.78760        -1.11234
C         30.85673        14.93634        -1.58532
C         30.93073        16.39161        -1.88286
C         31.98788        14.27073        -1.12652
C         32.16399        17.19939        -1.41432
C         30.73167        19.25933        -1.35394
C         31.93899        18.64881        -1.03277
C         33.01132         2.01156         0.25524
C         33.01246         3.45429         0.12670
C         34.12161         1.35337         0.78359
C         34.10945         4.18378         0.64767
C         32.97697         6.29202         0.05278
C         32.98202         7.74844         0.00602
C         34.05066         5.59857         0.65513
C         34.07303         8.50352         0.49907
C         33.10192        10.56925        -0.35391
C         33.21884        12.00978        -0.74241
C         34.20448         9.88457         0.20352
C         34.41416        12.79995        -0.29889
C         33.15993        14.96761        -0.65128
C         33.22343        16.38207        -0.75150
C         34.25994        14.25729        -0.07365
C         34.39649        16.98243        -0.28067
C         32.76619        19.43582        -0.16534
C         34.11351        19.15226         0.15745
C         35.27472         2.06694         1.20889
C         35.26056         3.49386         1.17414
C         36.41987         1.38273         1.68391
C         36.40960         4.21388         1.60436
C         35.12055         6.32570         1.36023
C         35.11159         7.83240         1.31511
C         36.39923         5.64512         1.63917
C         36.38113         8.52488         1.59782
C         35.58031        10.54152         0.37020
C         35.56756        12.07889         0.33783
C         36.26336        10.02613         1.64958
C         36.47462        12.85179         1.23024
C         35.29550        14.93881         0.61490
C         35.27779        16.35709         0.60664
C         36.39759        14.24869         1.27129
C         36.17242        17.14931         1.48113
C         34.89235        19.52025         1.22943
C         36.05222        18.68065         1.68135
C         37.56331         2.08142         2.08354
C         37.57087         3.51414         2.03089
C         38.73879         1.39423         2.54809
C         38.73763         4.24218         2.40772
C         37.55499         6.37422         1.94129
C         37.52459         7.83283         1.89807
C         38.76349         5.66909         2.31507
C         38.80141         8.57965         2.03962
C         37.55437        10.74954         1.95173
C         37.51594        12.14477         1.92307
C         38.75412        10.03898         2.28115
C         38.58251        12.91544         2.56804
C         37.45148        15.04828         1.89892
C         37.38485        16.44210         1.94621
C         38.62735        14.37488         2.41517
C         38.39794        17.23494         2.65391
C         37.30484        19.36999         1.99178
C         38.43401        18.70353         2.45050
C         39.85256         2.08977         2.92102
C         39.89023         3.52556         2.85183
C         41.04873         4.23936         3.20398
C         39.96703         6.35107         2.63626
C         40.06427         7.81854         2.41610
C         41.08297         5.62605         3.08493
C         41.14748         8.60518         3.01750
C         39.92967        10.70464         2.64835
C         39.89177        12.15774         2.91294
C         41.10620         9.96567         3.01987
C         41.10351        12.97786         2.92361
C         39.78840        15.05583         2.78301
C         39.73987        16.51838         2.99956
C         41.02610        14.33775         2.94781
C         40.93595        17.35480         3.00630
C         39.63411        19.40414         2.73250
C         40.84633        18.73296         2.96920
O         38.90106        12.49438         3.93243
O         35.53713        17.73598         2.69672
O         11.92695         5.07978        -2.84718
O          6.40949        14.39306         3.44035
O          3.90562         5.87589        -0.08869
O         34.58436         7.11887         2.49184
O         17.17255        13.75446        -3.12276
O         25.72804         2.78236        -0.00727
O         16.50303         8.13754        -3.32771
O         29.78449        17.99931        -3.32383
O         14.01327         3.49490        -3.04848
O         15.27014        18.01572         0.55629
O         35.64687        12.52721        -1.06369
O          9.82537        18.00788        -0.29369
O         10.73023         2.22348        -1.64458
O         29.23750         5.66660        -3.23771
O         30.32168        11.51553         0.23967
O         38.72988        16.84678         4.01183
O         11.33707        14.35911         1.90698
O          6.47878         8.36895        -0.94266
O         28.89815         3.32484        -2.62314
O         32.87901        12.22666        -2.15865
O         34.73393        18.25236        -0.72855
O         39.78381         8.19600         1.01851
O         31.99189        16.80340        -2.80037
O         29.42140         8.17973        -3.21577
O          7.52788         3.50115        -1.21519
O         18.98370         3.65719        -3.37567
O         18.46641         7.10274        -0.52275
O         26.72754        10.32309        -3.80042
O         35.33275        10.34618         2.72200
H         35.64482         9.91665         3.54582
O         22.07258         8.33233        -4.20282
H         22.82380         8.83305        -4.58901
O         18.55149        20.59977        -1.75940
H         18.74309        20.64811        -0.80058
O         31.73708         6.33853        -2.82470
H         31.06344         6.52887        -3.52076
O          9.39510        10.22472        -1.84659
H          8.55838         9.72541        -1.97314
O         31.52624         2.99019        -2.53257
H         30.78714         2.77861        -3.14653
O         36.38131        10.08404        -0.73418
H         36.22630        10.70988        -1.48040
O         18.58743        14.69805         0.11450
H         19.38179        15.14682         0.47369
O         22.18186         5.38794        -3.91669
H         22.08363         6.28575        -4.31751
O          6.98555        11.63737         3.31492
H          6.99116        12.51985         3.76236
H          1.08222         1.50249         3.41548
H          0.87221         3.92800         3.01915
H          3.21499         0.31251         2.91356
H          1.02885         5.86381         3.30196
H          0.97215         8.29908         3.16993
H          0.76092        10.19694         2.63288
H          0.81168        12.63241         2.73345
H          0.82433        14.57119         2.65801
H          0.97734        17.00295         2.97730
H          2.30723        19.08076         3.11945
H          5.53585         0.36492         2.10983
H          4.47583        20.26153         2.87832
H          7.89960         0.46141         1.50055
H          6.88580        20.20494         2.38691
H         10.27425         0.67961         1.31096
H          9.32039        20.10337         2.28408
H         12.83376         0.49866         0.31320
H         11.80293        20.42577         0.72692
H         14.86226         0.36094        -0.67260
H         13.43075        20.17619        -1.23332
H         17.23086         0.29082        -1.05589
H         16.24515        20.40072        -1.57988
H         19.71500         0.28817        -1.24683
H         18.18083        19.21335        -3.22444
H         22.15616         0.29315        -1.33817
H         20.93890        20.29684        -2.19675
H         24.49456         0.25291        -1.85557
H         23.41828        20.30113        -2.13865
H         27.25189         0.00208        -0.95597
H         25.86205        20.30354        -2.02394
H         29.43881         0.23842        -0.27917
H         28.22278        20.29622        -1.53183
H         31.72964         0.24437         0.28861
H         30.55193        20.26662        -0.94598
H         34.11017         0.25647         0.86735
H         32.30037        20.32474         0.28701
H         36.41245         0.28326         1.71849
H         34.51559        20.24497         1.96635
H         38.72336         0.29572         2.59510
H         37.36809        20.44869         1.78295
H         40.74920         1.55890         3.27281
H         41.93999         3.69560         3.54779
H         42.01569         6.15169         3.32947
H         42.00524         8.09390         3.47514
H         41.95517        10.52045         3.44383
H         42.08772        12.48901         2.89911
H         41.95715        14.91565         3.03118
H         41.92788        16.88254         3.00536
H         39.63029        20.50146         2.66738
H         41.76730        19.32795         3.05131
