         430
 CSIRO Nanostructure Databank - Neutral Graphene Oxide Data Set
C         28.05721        27.51215        -1.58244
C         27.97912        28.87235        -0.92777
C         26.73078        29.63078        -1.24423
C         27.95805        31.77197        -1.23332
C         26.73810        30.97663        -1.26302
C         27.81347        33.15781        -1.02497
C         26.71129        33.78895        -0.31781
C         28.14986        35.79911         0.26632
C         26.84695        35.02495         0.22942
C         28.02764        37.31921         0.16270
C         26.84609        38.00078         0.52989
C         27.92887        40.17111         0.23911
C         26.78561        39.38459         0.52718
C         27.90909        41.61674         0.24692
C         26.67751        42.34302         0.50488
C         27.84927        44.48451         0.46850
C         26.65841        43.70042         0.64490
C         27.88825        45.83698         0.71981
C         30.45875        27.51863        -1.15652
C         29.23909        26.86616        -1.62672
C         30.45753        28.91282        -1.02240
C         29.24355        29.66941        -1.16726
C         30.55047        31.74338        -1.36209
C         29.23922        31.06443        -1.32146
C         30.70153        33.07854        -1.75399
C         28.84773        34.08928        -1.38810
C         30.38344        35.99775        -1.07062
C         29.11156        35.27154        -0.77416
C         30.39163        37.44394        -0.71084
C         29.15465        38.07645        -0.17822
C         30.36409        40.24486        -0.21963
C         29.14234        39.49747        -0.08023
C         30.34575        41.65244        -0.12268
C         29.09358        42.32962         0.03844
C         30.35305        44.53057         0.10285
C         29.04525        43.82301        -0.16315
C         30.32073        45.95862         0.36485
C         29.10325        46.57334         0.62111
C         32.90684        24.63007        -0.67437
C         31.69839        25.35319        -0.87181
C         32.88346        27.46910        -0.53417
C         31.64566        26.74007        -0.86708
C         32.94758        28.89025        -0.83296
C         31.69739        29.64110        -0.54235
C         32.99631        31.73718        -0.98317
C         31.75076        31.06919        -0.98903
C         33.03657        33.17978        -1.04161
C         31.80219        33.90107        -1.32491
C         32.88817        35.93853        -0.41721
C         31.68521        35.26341        -1.07421
C         32.88280        37.45391        -0.44480
C         31.67329        38.14984        -0.47250
C         32.84047        40.28439        -0.19906
C         31.62706        39.56099        -0.33180
C         32.81276        41.72455        -0.12084
C         31.58097        42.40010        -0.14682
C         32.80414        44.62412        -0.33687
C         31.54082        43.84979        -0.05135
C         32.80473        46.02571         0.22721
C         31.58680        46.68700         0.46890
C         32.81638        48.74942         0.90739
C         31.62382        48.05836         0.83428
C         35.47599        23.15009        -0.39356
C         35.39213        24.53833        -0.31048
C         34.13464        25.24483        -0.47783
C         35.44829        27.43181        -0.48927
C         34.16366        26.71077        -0.32886
C         35.46794        28.81194        -0.66375
C         34.24320        29.54773        -1.17385
C         35.45400        31.71325        -0.77046
C         34.23373        31.02972        -0.88807
C         35.45906        33.16678        -0.69875
C         34.22168        33.86865        -0.84970
C         35.40930        36.04928        -0.36164
C         34.19899        35.37674        -0.97281
C         35.36604        37.43479        -0.08140
C         34.09622        38.15898        -0.20229
C         35.25610        40.29578         0.36355
C         34.05856        39.56277        -0.09198
C         35.29037        41.76278         0.18850
C         34.06574        42.45728        -0.00366
C         35.28249        44.58018         0.04328
C         34.07120        43.86813        -0.04196
C         35.28689        46.01556         0.16473
C         34.03859        46.71738         0.34576
C         35.31190        48.81755         0.71170
C         34.05512        48.10556         0.66188
C         35.36646        50.21075         0.96853
C         37.87103        23.09284         0.11737
C         36.70081        22.45124        -0.22504
C         37.83280        24.57501         0.40640
C         36.61574        25.29785        -0.13424
C         37.96295        27.36397        -0.61357
C         36.65397        26.66953        -0.33094
C         37.94411        28.85475        -0.36497
C         36.69668        29.55952        -0.55630
C         37.95624        31.69339        -0.59328
C         36.67920        30.96596        -0.64190
C         37.93045        33.21246        -0.51643
C         36.63524        33.90085        -0.48740
C         37.82428        36.01090         0.08867
C         36.61504        35.32450        -0.24008
C         37.80118        37.41618         0.28033
C         36.56538        38.11061         0.25606
C         37.83536        40.33032         0.79592
C         36.52998        39.54690         0.61896
C         37.78836        41.74605         0.24557
C         36.52570        42.44480         0.17211
C         37.74267        44.58170        -0.06569
C         36.52612        43.87201         0.05047
C         37.74572        46.01239        -0.02893
C         36.50712        46.71016         0.21640
C         37.78055        48.80843         0.52606
C         36.53567        48.12376         0.47335
C         37.80390        50.20676         0.79831
C         36.56897        50.88301         1.00006
C         40.20111        20.30267         1.10367
C         39.05828        20.98364         0.75117
C         40.31384        23.07122         0.56518
C         39.09482        22.37976         0.45740
C         40.42049        24.47552         0.02557
C         39.13977        25.28290         0.13908
C         40.46919        27.33753        -0.10575
C         39.17089        26.61918        -0.07939
C         40.43522        28.83679        -0.09281
C         39.13820        29.54128        -0.19256
C         40.32629        31.66580         0.20141
C         39.17324        30.97690        -0.15607
C         40.23305        33.10735         0.50041
C         39.08841        33.89725         0.07094
C         40.29035        35.99631         0.50670
C         39.05932        35.27750         0.27174
C         40.27666        37.43413         0.42261
C         39.05252        38.14165         0.39515
C         40.25336        40.26034         0.14337
C         39.06369        39.56689         0.36746
C         40.25324        41.70774        -0.06217
C         38.97846        42.42084         0.01009
C         40.16271        44.54039        -0.46224
C         38.98715        43.86001        -0.19209
C         40.15471        46.01995        -0.72684
C         38.94657        46.72423        -0.17222
C         40.24401        48.76685         0.22875
C         39.01347        48.11294         0.17126
C         40.31696        50.07338         0.96822
C         39.05704        50.90015         0.87779
C         40.36383        52.94408         1.17070
C         39.14093        52.28737         1.06255
C         42.63861        20.28302         1.53665
C         41.44283        20.98239         1.21292
C         42.74248        23.07878         1.11142
C         41.49702        22.38886         0.96486
C         42.78951        24.52687         0.94562
C         41.64195        25.22601         0.50631
C         42.82729        27.35400         0.76455
C         41.66740        26.63030         0.42694
C         42.75092        28.83924         1.04935
C         41.59285        29.58606         0.43158
C         42.79153        31.72502         0.81092
C         41.55987        30.96522         0.52076
C         42.79305        33.14061         0.84018
C         41.52102        33.87362         0.86357
C         42.76742        36.01353         0.65769
C         41.51176        35.31862         0.64768
C         42.75616        37.45280         0.45274
C         41.51283        38.14079         0.35456
C         42.70466        40.22187        -0.16812
C         41.49661        39.54574         0.09479
C         42.67717        41.60911        -0.74104
C         41.40587        42.35834        -0.43327
C         42.69090        44.53144        -0.57403
C         41.40029        43.79704        -0.87079
C         42.65840        45.96942        -0.52060
C         41.48307        46.68387        -0.43209
C         42.78407        48.79276         0.03716
C         41.47607        48.19663        -0.44940
C         42.79062        50.16607         0.48602
C         41.58338        50.85147         0.73770
C         42.83477        52.93566         1.06527
C         41.59071        52.24347         1.00355
C         43.84280        20.94403         1.59898
C         45.18869        23.04967         1.48874
C         43.92128        22.35622         1.40461
C         45.17197        24.52720         1.78720
C         43.97591        25.24260         1.21436
C         45.27569        27.35788         1.28581
C         44.01652        26.65213         1.09297
C         45.31741        28.81187         1.01633
C         44.05178        29.56475         0.79256
C         45.23521        31.75988         1.07617
C         44.02698        31.04554         0.91960
C         45.22323        33.16442         1.07275
C         44.00262        33.88274         0.92450
C         45.18592        36.16994         1.22439
C         43.96932        35.32722         0.86587
C         45.22897        37.48087         0.46170
C         43.96381        38.15754         0.27454
C         45.15960        40.26150        -0.29931
C         43.93834        39.54418        -0.08983
C         45.16147        41.67322        -0.38849
C         43.93842        42.39811        -0.46086
C         45.18299        44.55307        -0.43732
C         43.90945        43.81924        -0.48821
C         45.19848        45.92654        -0.51969
C         43.94395        46.72727        -0.78721
C         45.23839        48.75469         0.09952
C         43.96727        48.10768        -0.14886
C         45.25950        50.13052         0.49545
C         44.03254        50.85475         0.64348
C         44.01757        52.25045         0.93273
C         47.62674        23.08694         1.39448
C         46.40669        22.38614         1.42061
C         47.66300        24.49336         1.38849
C         46.47640        25.23866         1.51035
C         47.75704        27.43171         1.76622
C         46.47219        26.66833         1.46183
C         47.74279        28.88973         1.34602
C         46.57201        29.56082         1.24752
C         47.76902        31.74989         1.00040
C         46.51909        31.05622         1.49098
C         47.76038        33.16240         0.85835
C         46.50938        33.89838         1.19490
C         47.72704        36.08624         0.70514
C         46.50485        35.39788         1.17941
C         47.68559        37.40100         0.29005
C         46.41272        38.10258         0.15277
C         47.67532        40.24474        -0.29154
C         46.41170        39.46063        -0.52976
C         47.66663        41.64739        -0.32203
C         46.42478        42.39596        -0.37354
C         47.69139        44.50892        -0.34153
C         46.43223        43.79236        -0.38506
C         47.72030        45.91215        -0.34625
C         46.48506        46.69090        -0.70712
C         47.69724        48.74072         0.07962
C         46.46354        48.07977        -0.11295
C         47.69319        50.08819         0.53232
C         46.51167        50.76200         0.72274
C         49.98297        24.56998         0.31724
C         48.96374        25.19145         1.17538
C         50.14411        27.43169         0.70524
C         49.02648        26.68975         1.34060
C         50.16718        28.83803         0.71544
C         49.06528        29.61987         1.41548
C         50.14280        31.71428         0.46710
C         48.96616        31.04205         0.90003
C         50.14125        33.13257         0.34494
C         48.94997        33.85809         0.61784
C         50.19080        35.99944         0.17278
C         49.03459        35.34786         0.88058
C         50.14654        37.40076        -0.06369
C         48.91618        38.11122        -0.01951
C         50.14136        40.22686        -0.33631
C         48.89992        39.52035        -0.21893
C         50.14325        41.64788        -0.36772
C         48.91570        42.36131        -0.30658
C         50.17185        44.48776        -0.31572
C         48.92684        43.78428        -0.30432
C         50.18887        45.91157        -0.26787
C         48.95179        46.62032        -0.25058
C         50.18949        48.72602        -0.13574
C         48.95006        48.04528        -0.12860
C         51.07601        25.27193        -0.07838
C         52.42545        27.37049        -0.22884
C         51.22583        26.68704         0.16038
C         52.44753        28.79712        -0.21156
C         51.30106        29.53339         0.20911
C         52.48994        31.64938        -0.31115
C         51.33011        30.96847         0.15844
C         52.50533        33.09578        -0.36101
C         51.35848        33.82123        -0.01052
C         52.56561        35.94954        -0.45412
C         51.35707        35.26730        -0.08992
C         52.57312        37.36743        -0.54104
C         51.36090        38.09180        -0.38214
C         52.59492        40.20846        -0.68286
C         51.36266        39.50926        -0.45774
C         52.60485        41.64050        -0.62724
C         51.39221        42.35183        -0.44918
C         52.65337        44.47808        -0.37997
C         51.40271        43.77375        -0.38365
C         52.66504        45.90991        -0.35944
C         51.43396        46.62486        -0.28549
C         51.38845        48.04651        -0.23364
C         54.78056        27.34664        -0.88777
C         53.60852        26.66829        -0.58758
C         54.81434        28.75302        -0.91544
C         53.62626        29.49517        -0.62426
C         54.77915        31.59170        -1.41287
C         53.62955        30.91136        -0.70759
C         54.88148        33.06963        -1.10923
C         53.72855        33.78555        -0.72379
C         54.98654        35.91392        -0.96069
C         53.76222        35.21512        -0.70235
C         55.01122        37.34548        -0.94972
C         53.79485        38.07160        -0.81635
C         55.01000        40.21262        -1.41810
C         53.78556        39.49088        -0.90701
C         55.05538        41.67078        -1.02462
C         53.85687        42.34866        -0.67859
C         55.18372        44.44801        -0.23248
C         53.86618        43.75342        -0.45626
C         55.11369        45.92158        -0.49999
C         53.93562        46.58645        -0.51033
C         56.04948        29.47086        -1.14016
C         56.06577        30.81571        -1.28084
C         56.07129        33.77255        -1.38141
C         56.14051        35.15153        -1.27121
C         56.24964        38.09421        -0.99514
C         56.26982        39.44275        -1.11673
C         56.24171        42.43264        -1.25066
C         56.31345        43.76292        -0.94744
O         46.69200        34.65807         2.46733
O         44.79247        29.10252        -0.37281
O         35.61851        39.83737         1.74283
O         33.40153        27.16945         0.87367
O         29.67662        33.69544        -2.45950
O         49.51138        25.79632         2.41167
O         38.20878        32.52395        -1.79845
O         40.74685        28.06116        -1.36489
O         30.24629        37.02583        -2.13269
O         40.60540        33.40004         1.90123
O         43.91395        46.94660        -2.23663
H         44.81681        47.25932        -2.49585
O         27.92618        28.61956         0.52301
H         28.81039        28.28425         0.78745
O         46.42031        39.16616        -1.98313
H         45.50200        38.93556        -2.24104
O         54.88912        40.21154        -2.89664
H         54.83249        39.27300        -3.17732
O         34.38094        29.45744        -2.65948
H         35.28544        29.76683        -2.88476
O         28.73462        35.56642         1.59626
H         28.65593        34.60893         1.79361
O         40.04337        46.18065        -2.20816
H         40.70006        45.54505        -2.59390
O         38.02812        40.51332         2.23276
H         37.12577        40.50537         2.63408
O         46.53224        31.16875         2.95252
H         46.66157        32.11459         3.18013
O         37.67687        24.65978         1.87614
H         36.82533        24.22849         2.10357
O         34.22077        35.69744        -2.39293
H         35.02885        35.30176        -2.78132
O         49.35482        35.45414         2.31514
H         48.55544        35.12833         2.79613
O         38.14092        27.25974        -2.07452
H         39.03411        27.64087        -2.26543
O         55.48767        44.31131         1.21902
H         55.51887        43.34969         1.41177
O         40.60366        24.29797        -1.42507
H         40.69882        25.19035        -1.82310
O         49.45264        29.72092         2.81936
H         48.92078        29.04888         3.31446
O         41.34072        43.76124        -2.38680
H         40.50988        43.28968        -2.61927
O         42.55743        28.93464         2.50043
H         41.75882        28.42158         2.74454
O         28.84740        43.99769        -1.62711
H         27.99593        43.56449        -1.85205
O         46.61355        46.91691        -2.17780
H         46.77531        46.04054        -2.58997
O         54.44066        31.53871        -2.85547
H         54.34020        30.59153        -3.09118
O         41.34036        48.61957        -1.84911
H         40.80350        47.92154        -2.30230
O         42.68797        41.40945        -2.21009
H         42.50907        42.29834        -2.60745
O         44.97552        36.57591         2.60933
H         45.31216        35.83904         3.16996
O         40.39240        49.67720         2.40974
H         40.40082        50.50942         2.93043
O         32.83468        35.55976         0.98944
H         32.06221        35.99912         1.40314
O         47.80658        27.51685         3.22944
H         48.32792        26.73068         3.52758
O         32.80224        44.79150        -1.80628
H         31.91481        45.12583        -2.06029
O         31.57845        29.67985         0.94330
H         32.05506        28.89334         1.29531
O         44.99200        24.61360         3.26383
H         45.78615        24.20702         3.67227
H         27.12924        27.01884        -1.90762
H         25.78823        29.07249        -1.34541
H         25.79140        31.51820        -1.40850
H         25.77175        33.23495        -0.17117
H         26.00805        35.42464         0.81840
H         25.94773        37.43307         0.80803
H         25.83468        39.86678         0.78984
H         25.74492        41.78156         0.64738
H         25.72689        44.21359         0.92747
H         26.97988        46.35753         1.05844
H         29.30175        25.84261        -2.02361
H         29.06025        47.64845         0.83967
H         32.84852        23.53354        -0.72675
H         30.78558        24.77207        -1.06538
H         32.78882        49.81529         1.16939
H         30.69190        48.59915         1.04503
H         34.57715        22.56043        -0.61972
H         34.44294        50.77719         1.14612
H         36.69035        21.36270        -0.37784
H         36.56169        51.96100         1.20813
H         40.16248        19.22255         1.30627
H         38.10507        20.44060         0.69280
H         40.38842        54.03055         1.33458
H         38.22406        52.89093         1.11328
H         42.59017        19.20050         1.72368
H         42.83593        54.01815         1.25722
H         44.75191        20.37964         1.84760
H         44.96052        52.80459         1.02502
H         48.56270        22.51875         1.31090
H         46.43662        21.29335         1.30593
H         48.63993        50.60536         0.73505
H         46.55062        51.80397         1.06484
H         49.85121        23.52781        -0.00553
H         50.21375        49.82259        -0.08097
H         51.83647        24.76034        -0.68475
H         52.32050        48.62651        -0.24543
H         55.69866        26.78278        -1.10764
H         53.62062        25.57043        -0.57604
H         56.05989        46.46939        -0.62390
H         53.94274        47.67438        -0.66719
H         56.98803        28.89615        -1.15694
H         57.02486        31.32572        -1.44639
H         56.97055        33.22979        -1.70176
H         57.09066        35.65597        -1.49237
H         57.19875        37.55391        -0.86593
H         57.23363        39.97202        -1.11958
H         57.10922        41.93918        -1.71275
H         57.24173        44.32506        -1.12685
