         324
 CSIRO Nanostructure Databank - Neutral Graphene Oxide Data Set
C          1.27123         2.30221        -1.00591
C          1.23680         3.64928        -0.63399
C          2.46450         1.59184        -0.97255
C          2.40392         4.31085        -0.18819
C          1.18944         6.45968         0.25480
C          1.17185         7.84138         0.49073
C          2.38333         5.73649         0.16779
C          2.35165         8.58348         0.62997
C          1.19160        10.82361         0.62100
C          1.18821        12.24309         0.77722
C          2.31069        10.02999         0.82725
C          2.31485        12.97743         1.12560
C          1.17233        15.23612         1.24518
C          1.16392        16.60088         1.18164
C          2.37736        14.43543         1.20562
C          2.40274        17.38014         1.24894
C          2.50067        18.79700         0.80098
C          3.66093         2.22955        -0.55363
C          3.61743         3.59425        -0.15022
C          4.90071         1.52959        -0.58313
C          4.84472         4.21146         0.47411
C          3.62317         6.43325         0.36079
C          3.60741         7.86266         0.55452
C          4.85402         5.71820         0.37542
C          4.84119         8.54088         0.63171
C          3.55435        10.71317         1.24599
C          3.56445        12.22625         1.33974
C          4.85169         9.96955         1.04222
C          4.86837        12.98407         1.01776
C          3.60713        15.10152         1.03876
C          3.68510        16.56318         1.16516
C          4.80616        14.40998         0.66327
C          4.83090        17.28674         0.53934
C          3.67788        19.43266         0.63641
C          5.00670        18.74257         0.92909
C          6.13477         2.18140        -0.35483
C          6.14540         3.57016         0.04022
C          7.35289         1.49808        -0.56490
C          7.34845         4.25671         0.15235
C          6.08249         6.39490         0.47761
C          6.07072         7.82727         0.54419
C          7.35273         5.69325         0.45542
C          7.31444         8.51319         0.57659
C          6.08907        10.77056         0.74890
C          5.92434        12.20895         0.37314
C          7.32567         9.99051         0.45812
C          6.72805        12.88582        -0.50918
C          5.91837        15.04560         0.09386
C          5.95266        16.50193        -0.06076
C          7.02850        14.30330        -0.44418
C          7.25874        17.12903        -0.32238
C          6.23152        19.32983         0.27676
C          7.31228        18.58141        -0.16482
C          8.59796         2.15142        -0.40713
C          8.59537         3.55207        -0.06313
C          9.82932         1.48084        -0.60240
C          9.82638         4.20350         0.10097
C          8.55313         6.38944         0.61750
C          8.54125         7.83501         0.70723
C          9.86746         5.69155         0.30869
C          9.74883         8.65198         0.73763
C          8.52532        10.53916        -0.21136
C          8.55168        11.79101        -0.89153
C          9.72213         9.94377         0.17442
C          9.60542        12.67917        -0.87612
C          8.24499        14.90727        -0.86691
C          8.34158        16.35513        -0.73743
C          9.48110        14.11279        -1.30411
C          9.58892        17.08250        -1.12708
C          8.57556        19.22819        -0.37312
C          9.71786        18.51311        -0.71809
C         11.07274         2.12850        -0.40635
C         11.06287         3.51609        -0.02063
C         12.31668         1.46133        -0.58527
C         12.31883         4.16247         0.27779
C         11.05418         6.01129         1.17756
C         11.02663         8.14804         1.14590
C         12.28568         5.48804         0.89214
C         12.23663         8.55344         0.60194
C         10.96772        10.68561        -0.07238
C         10.90237        11.95471        -0.87149
C         12.24674         9.92474         0.03892
C         12.16188        12.63499        -1.26111
C         10.82403        14.82359        -1.57881
C         10.83615        16.34289        -1.53315
C         12.14955        14.12676        -1.36159
C         12.16398        17.06978        -1.45668
C         10.98023        19.14541        -0.71649
C         12.19430        18.47206        -0.98057
C         13.55186         2.09790        -0.31340
C         13.51449         3.45155         0.18755
C         14.80475         1.44216        -0.47594
C         14.78472         4.06914         0.61087
C         13.51334         6.29424         1.10864
C         13.50996         7.81840         0.82693
C         14.81006         5.55605         0.96900
C         14.75788         8.38198         0.22772
C         13.41442        10.41397        -0.73250
C         13.49861        11.89287        -1.18009
C         14.69238         9.69685        -0.49087
C         14.59042        12.64076        -0.45043
C         13.33255        14.79427        -1.18625
C         13.46103        16.27068        -1.32362
C         14.57573        14.11616        -0.68760
C         14.66534        16.97639        -0.84808
C         13.42760        19.09813        -0.76779
C         14.66215        18.37235        -0.71511
C         16.05961         2.07818        -0.21097
C         16.04875         3.42780         0.25499
C         17.31607         1.44389        -0.36946
C         17.25724         4.12191         0.50865
C         16.03877         6.28710         0.61430
C         15.92653         7.65761         0.12371
C         17.22238         5.57594         0.57006
C         17.12870         8.28522        -0.51574
C         15.91534        10.54035        -0.44080
C         15.87694        11.89524        -0.34724
C         17.17102         9.77974        -0.59092
C         17.09133        12.73479        -0.00748
C         15.86643        14.83419        -1.07310
C         15.92010        16.23278        -0.43572
C         17.14337        14.01784        -0.82056
C         17.22379        16.99206        -0.73040
C         15.89126        19.03893        -0.39171
C         17.16493        18.43352        -0.47598
C         18.53943         2.08333        -0.00037
C         18.49617         3.44310         0.44205
C         19.78824         1.42145        -0.15341
C         19.70877         4.15809         1.00392
C         18.47653         6.21011         0.08748
C         18.44927         7.56112        -0.52331
C         19.76181         5.62905         0.57102
C         19.72666         8.33344        -0.92114
C         18.44339        10.47347        -0.26358
C         18.40927        11.96165        -0.04839
C         19.72145         9.80214        -0.53621
C         19.67791        12.69299        -0.22470
C         18.42200        14.76937        -0.76433
C         18.40121        16.25111        -0.85647
C         19.68055        14.09915        -0.34024
C         19.70378        16.84086        -0.96437
C         18.29828        19.23280        -0.11036
C         19.63091        18.91104        -0.43449
C         21.06228         1.98705         0.26200
C         21.05689         3.45281         0.78979
C         22.35585         1.44735        -0.18471
C         22.29520         4.22041         0.52425
C         21.02474         6.32092         0.19250
C         21.00710         7.65832        -0.44142
C         22.29453         5.55741         0.19341
C         22.19538         8.33492        -0.56444
C         20.88506        10.51478        -0.48204
C         20.89221        11.96637        -0.28771
C         22.15015         9.79950        -0.81405
C         22.10396        12.69536        -0.23805
C         20.89525        14.81535        -0.30490
C         20.90154        16.25771        -0.49943
C         22.11912        14.10710        -0.17102
C         22.08349        17.02911        -0.23515
C         20.84738        19.23882         0.16662
C         22.05610        18.46880        -0.01638
C         23.56242         2.05655         0.13799
C         23.58552         3.45730         0.74447
C         24.80937         1.39583         0.01458
C         24.80384         4.22002         0.28408
C         23.51795         6.29664        -0.08237
C         23.47755         7.67879        -0.36745
C         24.75616         5.57649        -0.02815
C         24.70080         8.45251        -0.49975
C         23.42869        10.56108        -0.74104
C         23.37507        11.94822        -0.19895
C         24.70534         9.82397        -0.59464
C         24.64022        12.71475        -0.08882
C         23.36290        14.85778        -0.04685
C         23.31818        16.32063         0.01248
C         24.57033        14.18122        -0.00323
C         24.50908        17.02813         0.24719
C         23.27252        19.13481         0.23500
C         24.51635        18.46328         0.28908
C         26.04463         2.07379         0.22188
C         26.03910         3.51420         0.23937
C         27.28330         1.39760         0.29982
C         27.27382         4.22783         0.18347
C         26.01054         6.26087        -0.39824
C         25.99961         7.75292        -0.62138
C         27.28540         5.62937        -0.03937
C         27.26603         8.50608        -0.45588
C         25.95938        10.59171        -0.77327
C         25.91767        12.09903        -0.56155
C         27.26143         9.91085        -0.59045
C         27.16596        12.83358        -0.32060
C         25.83953        14.83634         0.33734
C         25.78315        16.33774         0.51076
C         27.13828        14.17737         0.03537
C         27.05060        17.07619         0.45519
C         25.73467        19.16220         0.46195
C         26.99765        18.50422         0.51816
C         28.50240         2.10150         0.41378
C         28.50529         3.53054         0.32841
C         29.75865         1.43367         0.57508
C         29.72170         4.26915         0.37236
C         28.48270         6.37548        -0.02456
C         28.47762         7.80893        -0.22829
C         29.71540         5.69302         0.22836
C         29.70349         8.54605        -0.16059
C         28.47543        10.65059        -0.60378
C         28.42102        12.14553        -0.69781
C         29.69837         9.96000        -0.42231
C         29.70048        12.96326        -0.51749
C         28.34093        14.95232         0.19144
C         28.27657        16.37703         0.45416
C         29.60590        14.32734         0.06173
C         29.49103        17.11235         0.63022
C         28.20387        19.21877         0.67145
C         29.43942        18.53933         0.77163
C         30.93266         2.14509         0.66291
C         30.94911         3.57053         0.56550
C         32.15062         4.32116         0.65168
C         30.93499         6.42674         0.31939
C         30.91989         7.85565         0.15718
C         32.14103         5.69739         0.54335
C         32.12199         8.61990         0.30741
C         30.99769        10.66032        -0.48245
C         31.01443        12.25060        -0.47864
C         32.17332         9.94668         0.00073
C         32.14382        12.97682         0.08536
C         30.79224        15.00768         0.43498
C         30.74582        16.43277         0.70303
C         32.02563        14.27839         0.48937
C         31.90862        17.18817         0.95880
C         30.64556        19.25678         1.00554
C         31.85068        18.58046         1.11082
O          7.35834        12.15480        -1.50865
O          9.95965        16.91649        -2.54574
O          4.84813        17.06948        -0.90305
O          4.26065        10.11263         2.37711
O         18.42261        11.03507         1.10490
O         21.19651         2.36554         1.71043
O         25.87276        11.52485        -1.90925
O         11.37436        11.89774        -2.27505
O         24.07347        12.03328         1.10064
O         14.89013         4.55418         2.01358
O         14.33516        13.55748         0.64799
O         11.83885        10.88847         1.09708
O         10.97230         7.08198         2.05816
O          9.98696        14.33281        -2.66017
O         13.61184         7.26008         2.18261
O         12.99177        16.81040        -2.61579
O         29.06865        12.80894        -1.82798
O         19.77322        18.07658        -1.58051
O         17.02863         8.97625        -1.80910
O          3.22742        17.08730         2.44540
O         31.27322        11.47325        -1.66805
O         25.75942        15.42865         1.68278
O         20.42227         6.44310         1.58908
O         18.39593         6.35061        -1.38263
O         22.77838        10.33543        -2.03112
O         13.93913         9.52862        -1.75857
O         26.01463         6.82866        -1.76420
O         17.97168        14.01201        -2.00715
O          7.11739        10.64350         1.79981
O          4.44732        12.70773         2.38197
O         10.26492         6.25696        -1.00769
H          9.61757         5.93607        -1.67198
O         19.77453         8.32180        -2.36955
H         19.34634         7.49045        -2.67438
O         14.00533        11.89911        -2.53151
H         13.30987        11.51194        -3.10814
O         15.88131        16.06285         1.00465
H         15.86467        16.95101         1.41885
O         19.48727         4.17944         2.43446
H         20.03130         4.91499         2.79879
O         15.73285        15.04419        -2.48870
H         16.57775        14.76681        -2.91823
O         23.73068         3.29342         2.18698
H         22.93576         2.79280         2.48993
O          4.74316         3.91122         1.91750
H          3.93422         4.35406         2.25214
O          5.25390        18.84288         2.35664
H          4.50252        18.38408         2.80882
O         16.93598        13.18468         1.35757
H         17.09628        12.40974         1.94074
H          0.34738         1.80862        -1.33810
H          0.28296         4.18977        -0.69480
H          2.49439         0.53674        -1.27936
H          0.22539         5.94617         0.13959
H          0.19784         8.34474         0.56348
H          0.24998        10.35945         0.29417
H          0.24299        12.76533         0.57107
H          0.20742        14.70850         1.24003
H          0.21106        17.13584         1.05316
H          1.55711        19.32539         0.59166
H          4.90467         0.47236        -0.88794
H          3.68754        20.48747         0.32127
H          7.33047         0.43778        -0.85732
H          6.37160        20.41720         0.38517
H          9.81612         0.41965        -0.89285
H          8.66170        20.30185        -0.14760
H         12.31524         0.41603        -0.92852
H         11.02738        20.20440        -0.41976
H         14.80839         0.39971        -0.82858
H         13.43977        20.16489        -0.49842
H         17.35170         0.40360        -0.72447
H         15.84549        20.11637        -0.17276
H         19.81476         0.48118        -0.72404
H         18.10192        20.13487         0.48883
H         22.36280         0.46134        -0.67538
H         20.89911        20.10046         0.84876
H         24.82425         0.32277        -0.22995
H         23.25591        20.22437         0.38456
H         27.29704         0.29749         0.29542
H         25.70861        20.25967         0.53672
H         29.77228         0.33594         0.63934
H         28.18177        20.31597         0.74479
H         31.88695         1.61593         0.80147
H         33.10233         3.79246         0.80676
H         33.09857         6.23021         0.61173
H         33.04503         8.12276         0.63265
H         33.13592        10.47426         0.03192
H         33.13220        12.49767         0.09634
H         32.92867        14.78689         0.85272
H         32.88771        16.69616         1.02697
H         30.60798        20.35007         1.11273
H         32.77761        19.13900         1.30196
