         430
 CSIRO Nanostructure Databank - Neutral Graphene Oxide Data Set
C         27.92698        27.36101        -0.42804
C         27.87783        28.74690        -0.78537
C         26.69701        29.46947        -0.86445
C         27.84812        31.63661        -1.00060
C         26.69324        30.88844        -0.98495
C         27.83847        33.15007        -1.02495
C         26.65620        33.77408        -0.33352
C         27.87360        35.88005        -0.09438
C         26.67575        35.08522         0.01154
C         27.86230        37.28888         0.16956
C         26.66108        37.99487         0.42652
C         27.87033        40.08946         0.72156
C         26.67687        39.35374         0.71576
C         27.87985        41.53030         1.18272
C         26.62681        42.30240         0.85080
C         27.87761        44.39971         0.76932
C         26.64067        43.64884         0.74042
C         27.87552        45.80387         0.72008
C         30.38997        27.36555        -0.42001
C         29.12214        26.69931        -0.29517
C         30.41193        28.74576        -0.71451
C         29.15323        29.41588        -1.06852
C         30.39577        31.66299        -0.86304
C         29.14004        30.96293        -1.17057
C         30.36899        33.07329        -0.61346
C         29.13352        33.78737        -0.56627
C         30.33101        35.92081        -0.17755
C         29.11860        35.19470        -0.29592
C         30.32855        37.33479        -0.04518
C         29.08794        38.02413         0.17003
C         30.33975        40.14143         0.42800
C         29.09226        39.42473         0.43182
C         30.34310        41.56812         0.58442
C         29.13247        42.27396         0.78541
C         30.34371        44.42940         0.63630
C         29.12061        43.69402         0.75524
C         30.31623        45.85234         0.57889
C         29.06545        46.51617         0.64062
C         32.90185        24.57577        -0.07124
C         31.68857        25.25673        -0.10192
C         32.87313        27.37287        -0.38275
C         31.64195        26.65606        -0.28171
C         32.86118        28.79493        -0.55448
C         31.62397        29.48736        -0.72426
C         32.83838        31.64724        -0.64944
C         31.60588        30.93381        -0.77864
C         32.83055        33.07289        -0.52745
C         31.60068        33.75535        -0.41455
C         32.84416        35.92937        -0.40679
C         31.62003        35.18498         0.04496
C         32.76724        37.40392        -0.68895
C         31.54310        38.06851        -0.11460
C         32.80859        40.18043         0.16229
C         31.55671        39.45865         0.13751
C         32.80122        41.55334         0.41492
C         31.58219        42.27711         0.51325
C         32.78929        44.44218         0.40590
C         31.58702        43.72235         0.55047
C         32.79401        45.86409         0.37838
C         31.55885        46.58191         0.44105
C         32.79359        48.66361         0.14461
C         31.59513        47.98893         0.32562
C         35.43266        23.12556         0.32764
C         35.43025        24.49717        -0.29351
C         34.12255        25.25459        -0.16852
C         35.35622        27.39716        -0.34411
C         34.11877        26.66867        -0.29917
C         35.33638        28.81570        -0.48081
C         34.09073        29.51698        -0.57178
C         35.30042        31.67784        -0.60909
C         34.07763        30.94483        -0.61452
C         35.29868        33.10867        -0.62249
C         34.06922        33.80454        -0.52677
C         35.29132        35.97121        -0.75004
C         34.04742        35.24957        -0.55562
C         35.28967        37.41892        -0.62819
C         34.06459        38.11673        -0.39492
C         35.30725        40.19607         0.00481
C         34.06561        39.47910        -0.06439
C         35.34006        41.57680         0.35207
C         34.07191        42.29766         0.74545
C         35.29900        44.46453         0.42975
C         34.05849        43.68834         0.08948
C         35.29681        45.84817         0.40557
C         34.03151        46.58156         0.27223
C         35.34726        48.68143        -0.12835
C         34.02566        47.97774         0.13538
C         35.33429        50.18133         0.06740
C         37.79910        23.29467         0.95053
C         36.55404        22.56261         0.82571
C         37.82293        24.67877         0.55790
C         36.63294        25.31943         0.11138
C         37.81934        27.47066        -0.00209
C         36.60326        26.71372        -0.10087
C         37.80826        28.87560        -0.35675
C         36.55343        29.55228        -0.53655
C         37.75137        31.71079        -0.77924
C         36.54161        30.97948        -0.64089
C         37.77911        33.12461        -0.83385
C         36.52956        33.83285        -0.74348
C         37.76042        35.95991        -1.11590
C         36.49525        35.25129        -0.85086
C         37.75942        37.47778        -0.98561
C         36.50377        38.14288        -0.61738
C         37.77019        40.25247        -0.31148
C         36.53353        39.53031        -0.30263
C         37.77472        41.64545        -0.00090
C         36.54075        42.27894         0.36145
C         37.79974        44.47019         0.55738
C         36.53932        43.71042         0.83424
C         37.76103        45.89830         0.62539
C         36.52353        46.57568         0.57478
C         37.77541        48.77762         0.52029
C         36.45529        48.07058         0.73948
C         37.76850        50.16115         0.38840
C         36.48008        50.84859         0.30088
C         40.28362        20.58552         1.75726
C         39.11328        21.29840         1.82719
C         40.05373        23.59091         1.73457
C         38.95426        22.71579         1.52571
C         40.22411        24.83721         1.15191
C         39.04034        25.44057         0.63533
C         40.27092        27.59671         0.50465
C         39.02011        26.83065         0.33921
C         40.26806        29.01054        -0.08613
C         39.00194        29.55583        -0.57653
C         40.27197        31.67067        -1.31455
C         38.98275        30.95078        -1.04164
C         40.29818        33.13491        -1.03718
C         39.03244        33.82783        -0.89747
C         40.23715        35.98506        -0.81904
C         39.04640        35.25835        -0.92026
C         40.25209        37.42542        -0.77205
C         39.03701        38.15812        -0.73372
C         40.26074        40.25776        -0.50182
C         39.02491        39.55510        -0.51384
C         40.23514        41.76850        -0.59604
C         38.98863        42.39057        -0.01845
C         40.26040        44.48185         0.40388
C         39.01351        43.77241         0.31529
C         40.25986        45.88332         0.94397
C         38.99349        46.64000         0.66191
C         40.25606        48.76459         0.57925
C         39.00674        48.04504         0.59305
C         40.24323        50.18768         0.40905
C         39.01232        50.88650         0.28943
C         40.20709        52.97329        -0.13535
C         39.02749        52.29102         0.03476
C         42.57072        20.37457         0.67652
C         41.58076        21.11456         1.37315
C         42.83925        23.21179         0.88921
C         41.87173        22.47508         1.59104
C         42.80652        24.67284         0.80806
C         41.59233        25.52476         1.27166
C         42.71569        27.50600         0.17834
C         41.56244        26.87603         0.57322
C         42.72377        28.89385        -0.29040
C         41.53193        29.59005        -0.51462
C         42.78768        31.67859        -0.91322
C         41.58477        30.87247        -1.31825
C         42.79892        33.12681        -1.30555
C         41.49534        33.81409        -0.94825
C         42.77050        36.01006        -0.79623
C         41.50734        35.24510        -0.46715
C         42.74190        37.39458        -0.81814
C         41.49402        38.13567        -0.70974
C         42.73716        40.34283        -0.66550
C         41.47140        39.55663        -0.64103
C         42.70744        41.74044        -0.16780
C         41.50447        42.42889        -0.11040
C         42.73852        44.51898         0.41347
C         41.48643        43.81528         0.25317
C         42.74839        45.93365         0.54730
C         41.52189        46.65236         0.64859
C         42.77363        48.81738         0.85444
C         41.48931        48.05395         0.63505
C         42.73326        50.23876         0.35859
C         41.48479        50.90374         0.25480
C         42.67735        52.98675        -0.25852
C         41.45772        52.29589        -0.04724
C         43.72243        21.00984         0.23560
C         45.09525        23.08700        -0.07969
C         43.88158        22.42646         0.29377
C         45.06535        24.56914        -0.33254
C         43.91699        25.31876         0.31127
C         45.16469        27.38778        -0.15336
C         43.96990        26.76250         0.13910
C         45.23054        28.80135        -0.65741
C         43.95688        29.56239        -0.49628
C         45.22569        31.69752        -0.52138
C         43.97202        30.98786        -0.65394
C         45.22661        33.12498        -0.57799
C         44.02468        33.85311        -0.81222
C         45.26034        35.94577        -0.62580
C         44.02093        35.26579        -0.77191
C         45.31107        37.40032        -0.80213
C         44.01455        38.14263        -0.97945
C         45.26252        40.21921        -0.12242
C         44.05188        39.62395        -0.73531
C         45.14871        41.59319         0.37839
C         43.94029        42.39721         0.11893
C         45.23888        44.48037         0.39149
C         43.96552        43.78580         0.35879
C         45.23379        45.93220         0.28169
C         44.00188        46.65546         0.42709
C         45.21989        48.78606         0.25392
C         44.01053        48.06046         0.43879
C         45.20858        50.21867         0.15544
C         43.93265        50.93283         0.12844
C         43.88012        52.31818        -0.19150
C         47.52853        23.08506        -0.29947
C         46.31383        22.40754        -0.23676
C         47.59879        24.50638        -0.16106
C         46.39861        25.24732        -0.12223
C         47.63899        27.36823         0.01060
C         46.42202        26.66506        -0.09409
C         47.65953        28.83265         0.04165
C         46.44632        29.55760        -0.19527
C         47.64345        31.70560        -0.03603
C         46.43411        30.98048        -0.23801
C         47.67557        33.10302        -0.16696
C         46.45851        33.82416        -0.38507
C         47.71695        35.95583        -0.34208
C         46.47147        35.24346        -0.44004
C         47.72884        37.38687        -0.30608
C         46.53348        38.12789        -0.41510
C         47.75164        40.18428         0.20385
C         46.50459        39.52768        -0.11290
C         47.74359        41.49823         0.96436
C         46.44073        42.32560         0.79354
C         47.70531        44.43567         0.15675
C         46.43613        43.76420         0.48013
C         47.70465        45.92457        -0.02098
C         46.43310        46.65194         0.14748
C         47.68198        48.79626        -0.06197
C         46.45091        48.07432         0.12922
C         47.63492        50.19623        -0.10603
C         46.42554        50.88926        -0.00249
C         50.09657        24.52106         0.00603
C         48.85634        25.20518        -0.02144
C         50.09353        27.30775         0.32335
C         48.86249        26.62982         0.11318
C         50.12289        28.79032         0.60994
C         48.84712        29.51353         0.28176
C         50.16399        31.66802        -0.01762
C         48.87913        31.00710         0.45427
C         50.16834        33.09255        -0.14756
C         48.93227        33.81127        -0.14399
C         50.18158        35.94017        -0.30744
C         48.93742        35.23165        -0.24922
C         50.17321        37.35472        -0.31243
C         48.97676        38.08302        -0.20894
C         50.24745        40.17681         0.19119
C         48.97588        39.50933         0.04734
C         50.35959        41.57086         0.77781
C         49.03045        42.32897         0.82702
C         50.24574        44.51020         0.11620
C         49.00489        43.79305         0.53046
C         50.22360        45.88324        -0.06105
C         48.98293        46.66501         0.32163
C         50.09815        48.67968        -0.64316
C         48.93862        48.08569        -0.18634
C         51.28883        25.20081         0.16858
C         52.56878        27.34197         0.52884
C         51.30694        26.60682         0.34718
C         52.59133        28.73113         0.32439
C         51.31941        29.42190        -0.11432
C         52.61284        31.58515        -0.06796
C         51.36731        30.93233        -0.01416
C         52.67523        33.01410        -0.54319
C         51.40106        33.80313        -0.31136
C         52.67619        35.94530        -0.32456
C         51.41790        35.20223        -0.36880
C         52.68083        37.30787        -0.26685
C         51.43948        38.09629        -0.61779
C         52.67797        40.22943        -0.14723
C         51.44409        39.52185        -0.10836
C         52.70725        41.64015        -0.08841
C         51.49633        42.36498         0.14243
C         52.67367        44.46928        -0.38476
C         51.46555        43.75542        -0.04334
C         52.65666        45.87363        -0.58440
C         51.40730        46.60089        -0.46387
C         51.31631        47.96785        -0.74013
C         54.95348        27.36912         1.01395
C         53.76786        26.67352         0.88855
C         54.99608        28.76952         0.78986
C         53.79621        29.46125         0.44811
C         55.04967        31.58975         0.37220
C         53.82478        30.88614         0.22110
C         55.06916        33.04665         0.23803
C         53.92110        33.73820        -0.10330
C         55.18409        35.93104         0.11004
C         53.98911        35.20175        -0.45829
C         55.20362        37.33530         0.10092
C         53.89494        38.09138         0.16418
C         55.20656        40.22904        -0.16572
C         53.94045        39.47240        -0.49272
C         55.19010        41.65255        -0.32412
C         53.94107        42.34602        -0.32194
C         55.12946        44.47437        -0.68291
C         53.91299        43.76159        -0.46294
C         55.08214        45.87538        -0.88915
C         53.87825        46.54899        -0.85490
C         56.21086        29.50102         0.89203
C         56.22877        30.86579         0.68996
C         56.28468        33.78374         0.50477
C         56.32979        35.15389         0.44371
C         56.38005        38.10428         0.22226
C         56.36616        39.50204         0.11952
C         56.39394        42.40519        -0.47508
C         56.36472        43.76475        -0.67719
O         44.79675        37.78230        -2.15516
O         40.18372        28.75102         1.38682
O         45.50482        41.86907         1.79978
O         43.50024        40.31739        -1.93398
O         39.44774        31.24475        -2.45380
O         47.76526        45.04979        -1.18671
O         49.04525        43.32367         1.92487
O         41.09629        23.13642         2.55940
O         37.71044        36.81222        -2.30325
O         29.21238        30.10534        -2.35366
O         51.12325        29.13674        -1.52818
H         51.80440        29.62855        -2.03372
O         41.52073        35.16630         1.02093
H         40.70420        34.69461         1.29273
O         34.03927        42.45490         2.18528
H         34.91844        42.81834         2.47152
O         48.89686        31.24692         1.92125
H         49.59522        30.64473         2.28349
O         35.69698        48.41679        -1.51422
H         35.03553        48.85927        -2.08516
O         52.78417        32.89535        -2.01833
H         53.10347        33.77859        -2.33863
O         48.97618        46.75129         1.78453
H         49.77933        47.24158         2.05903
O         31.72878        35.11257         1.53720
H         32.52655        34.57616         1.73650
O         54.23305        35.20898        -1.93698
H         55.14336        34.86724        -2.07386
O         45.41871        28.65818        -2.12888
H         45.18091        29.51708        -2.54052
O         32.58314        37.52507        -2.15721
H         33.39963        37.18022        -2.57966
O         27.91502        41.45366         2.66185
H         27.99601        42.37245         2.99619
O         40.27163        45.73043         2.43522
H         40.40182        46.62894         2.80930
O         36.49179        43.62124         2.34006
H         36.57554        44.53834         2.68129
O         44.78889        24.69265        -1.78983
H         45.59350        24.38978        -2.26260
O         36.06544        48.32332         2.12787
H         36.80321        48.03352         2.70393
O         42.88483        48.93354         2.33138
H         43.09730        48.03947         2.67574
O         51.45495        38.19861        -2.08659
H         52.36374        38.50900        -2.33574
O         42.90636        33.14703        -2.77792
H         42.51235        32.30102        -3.10773
O         35.59000        24.26941        -1.74638
H         36.44988        23.81567        -1.87599
O         53.96699        39.26450        -1.94779
H         54.08900        40.14116        -2.37049
O         40.17845        42.06180        -2.04362
H         40.97262        41.65583        -2.45488
O         27.71011        33.50408        -2.45612
H         27.73311        34.48318        -2.51395
O         50.77809        41.37181         2.16073
H         50.52099        42.18889         2.64598
O         53.68620        38.36404         1.58566
H         53.67172        37.50855         2.06346
O         34.05842        43.44908        -1.35575
H         34.13448        44.31794        -1.80350
O         47.76465        41.05207         2.34609
H         47.84699        41.85543         2.90520
O         50.38092        28.95779         2.04908
H         49.74955        28.38294         2.53174
O         41.83908        30.51053        -2.72893
H         40.94408        30.44495        -3.14920
O         41.80457        25.81166         2.68218
H         41.73309        24.95088         3.15564
H         26.98068        26.82296        -0.27066
H         25.73713        28.94994        -0.72989
H         25.71524        31.38956        -0.96984
H         25.72743        33.19942        -0.21223
H         25.76586        35.54025         0.42749
H         25.69710        37.46962         0.42372
H         25.72504        39.84420         0.95965
H         25.66384        41.77338         0.82598
H         25.70239        44.20456         0.59052
H         26.91628        46.34133         0.73345
H         29.10132        25.63092        -0.04238
H         29.02038        47.61260         0.60603
H         32.87941        23.48158         0.01754
H         30.76080        24.67518        -0.02431
H         32.76521        49.75591         0.03372
H         30.66552        48.57243         0.35580
H         34.52202        22.51398         0.25865
H         34.40140        50.74903        -0.06214
H         36.51773        21.52850         1.19789
H         36.45078        51.94311         0.39683
H         40.21075        19.49065         1.86100
H         38.19294        20.71719         1.99432
H         40.19830        54.05122        -0.35233
H         38.08107        52.83989        -0.05539
H         42.43127        19.29821         0.50252
H         42.65227        54.06091        -0.49205
H         44.50223        20.40895        -0.25227
H         44.80619        52.87558        -0.38373
H         48.45144        22.49576        -0.37604
H         46.33077        21.30800        -0.21228
H         48.56235        50.77421        -0.21802
H         46.45464        51.98565        -0.05147
H         50.12461        23.42927        -0.10888
H         50.09119        49.72996        -0.96770
H         52.23110        24.63618         0.15910
H         52.19756        48.51934        -1.09201
H         55.87873        26.84246         1.28881
H         53.75628        25.59126         1.07742
H         56.01718        46.42415        -1.07186
H         53.87992        47.63573        -1.01159
H         57.13952        28.96768         1.14092
H         57.18788        31.39073         0.78513
H         57.19223        33.24778         0.80810
H         57.25954        35.66356         0.73356
H         57.35177        37.60551         0.34593
H         57.31762        40.03488         0.26186
H         57.36079        41.88352        -0.47628
H         57.30005        44.32171        -0.83232
