         271
 CSIRO Nanostructure Databank - Neutral Graphene Oxide Data Set
C        -11.41404         0.66492         1.18102
C        -10.61119         1.57985         0.36966
C         -8.94070         0.43448        -0.52443
C         -7.75594         1.26089        -0.94722
C         -6.43988         0.55199        -0.66016
C         -5.22041         1.32045        -1.12231
C         -3.84663         0.66475        -0.80417
C         -2.69027         1.30928        -1.56875
C         -1.36845         0.54591        -1.35787
C         -0.08090         1.34854        -1.46684
C          1.22448         0.69532        -1.06592
C          2.47488         1.50847        -0.86910
C          3.78087         0.74988        -0.97527
C          4.98655         1.50025        -1.46229
C          6.34348         0.79109        -1.54180
C          7.42550         1.54660        -0.79183
C          8.82116         0.92928        -0.72053
C          9.45249         1.28889         0.65177
C         10.80313         0.63477         0.81271
C        -10.13327         2.81459         0.65940
C         -9.07415         3.47301        -0.25028
C         -7.74029         2.63326        -0.13115
C         -6.46882         3.48854        -0.50077
C         -5.15412         2.67997        -0.28455
C         -3.93399         3.48714        -0.73515
C         -2.67813         2.81998        -1.26391
C         -1.35594         3.52294        -1.22879
C         -0.16982         2.85044        -1.37595
C          1.11642         3.61840        -1.47585
C          2.43633         2.96070        -1.19577
C          3.60687         3.65986        -1.13794
C          4.93166         2.98702        -1.29226
C          6.15425         3.69624        -0.82394
C          7.32023         2.88085        -0.47145
C          8.42634         3.53544         0.25434
C          9.46902         2.78174         0.77928
C         -8.87173         4.92697         0.15434
C         -7.67930         5.56812         0.29407
C         -6.39275         4.78254         0.34504
C         -5.14559         5.58661         0.06136
C         -3.80855         4.85429        -0.06526
C         -2.72107         5.68942        -0.73879
C         -1.44009         5.02654        -1.18559
C         -0.18802         5.83114        -1.03749
C          1.08322         5.12849        -1.34355
C          2.35222         5.73819        -0.81218
C          3.63305         5.14796        -1.40539
C          4.91244         5.85590        -0.90287
C          6.13551         5.05835        -0.60558
C          7.22933         5.71210         0.13260
C          8.34771         4.92152         0.51084
C         -7.59077         6.97483         0.64561
C         -6.37971         7.62092         0.72711
C         -5.15501         6.92363         0.32180
C         -3.85337         7.66916         0.49238
C         -2.69437         7.18481        -0.40762
C         -1.37410         7.68217         0.18966
C         -0.18655         7.10318        -0.54170
C          0.96929         7.69511         0.22125
C          2.30050         7.00107        -0.01540
C          3.56908         7.77363         0.31301
C          4.84730         7.24680        -0.33594
C          6.11402         7.99501         0.14356
C          7.16849         7.02699         0.57876
C         -6.24497         8.94416         1.33537
C         -5.09704         9.65463         1.29620
C         -4.00830         9.19831         0.35181
C         -2.65391         9.85700         0.47557
C         -1.44653         9.20127         0.27788
C         -0.21641         9.89794         0.27744
C          1.03039         9.21407         0.19424
C          2.21069         9.91906         0.26069
C          3.56486         9.30633         0.06651
C          4.65916         9.83152         0.98403
C          5.80445         9.14047         1.08926
C        -11.21753        -0.68247         1.21447
C        -10.09735        -1.44784         0.65635
C         -8.90393        -0.74152         0.14349
C         -7.59199        -1.37431         0.41760
C         -6.36782        -0.64205        -0.02416
C         -5.06623        -1.33288         0.21181
C         -3.74411        -0.66413        -0.11221
C         -2.38117        -1.41703         0.09261
C         -1.29020        -0.87685        -0.85189
C          0.09580        -1.57956        -0.81356
C          1.28238        -0.66860        -0.38040
C          2.61034        -1.39270        -0.66157
C          3.80560        -0.74731        -0.91556
C          5.11132        -1.41881        -0.95010
C          6.28713        -0.70208        -1.18495
C          7.59652        -1.26870        -1.40540
C          8.83653        -0.59029        -0.95910
C          9.95611        -1.39323        -0.33052
C         11.00530        -0.62421         0.40516
C        -10.06659        -2.81368         0.75410
C         -8.90576        -3.59435         0.17863
C         -7.59621        -2.88134         0.50490
C         -6.36019        -3.61533         0.16545
C         -5.10711        -2.82975         0.20675
C         -3.83553        -3.59498         0.00108
C         -2.48446        -2.95614         0.10345
C         -1.17051        -3.80601         0.00445
C          0.07387        -2.91221        -0.07210
C          1.36103        -3.63799        -0.13065
C          2.61700        -2.82199        -0.28883
C          3.89770        -3.55875        -0.24383
C          5.18304        -2.87995        -0.59142
C          6.34407        -3.52158         0.13999
C          7.51463        -2.73147         0.68266
C          8.81183        -3.46463         0.55496
C          9.88551        -2.84986         0.01862
C         -8.79401        -5.06822         0.51567
C         -7.60683        -5.73781         0.30021
C         -6.38602        -4.97215         0.00040
C         -5.25467        -5.71550        -0.67287
C         -3.92640        -4.91851        -0.67307
C         -2.64271        -5.62450        -0.94221
C         -1.21992        -5.05849        -0.88047
C          0.09908        -5.85126        -0.96503
C          1.42890        -5.02862        -0.82213
C          2.63966        -5.83185        -0.34207
C          3.88918        -5.05117        -0.12060
C          4.95102        -5.59709         0.77945
C          6.23980        -4.85513         0.86084
C          7.50519        -5.63599         1.05306
C          8.84721        -4.90388         1.07706
C         -7.47883        -7.17819         0.43236
C         -6.29316        -7.86995         0.19930
C         -5.10999        -7.16634        -0.23855
C         -3.93300        -7.84261        -0.45059
C         -2.67878        -7.08204        -0.65822
C         -0.83152        -8.23475        -1.04413
C          0.23253        -7.35893        -0.74872
C          1.27372        -7.93279         0.02414
C          2.43445        -7.10506         0.42457
C          3.59515        -7.71738         1.14772
C          4.93750        -7.08880         0.86437
C          6.22189        -7.79795         1.09505
C          7.46523        -6.98234         1.22677
C         -6.13353        -9.29906         0.38581
C         -4.94039        -9.94909         0.20472
C         -3.72072        -9.26189        -0.18347
C         -2.48301        -9.93746        -0.18829
C         -1.10311        -9.44574        -0.36048
C          0.02164       -10.02547         0.27783
C          1.22243        -9.30106         0.40741
C          2.43341       -10.02124         0.98865
C          3.53938        -9.15252         1.69323
C          4.91013        -9.82200         1.67886
C          6.09958        -9.20743         1.54867
O         -1.56001        -0.62597        -2.23796
O         -5.35748         1.62529        -2.47856
O          0.82800         0.77193        -2.46399
O          9.60402         1.54043        -1.75999
H         10.16617         0.84454        -2.16803
O          4.87088         2.34812        -2.64519
O          4.99089         7.06182        -1.77203
O          0.82059        -3.15887         1.15977
O         -6.28070         4.34032         1.80299
O          6.76919         0.76041        -2.92978
H          6.35315         1.54452        -3.36746
O          6.16067        -3.69934        -1.29285
O         -3.66769         3.48121        -2.13762
O          3.93239         9.58408        -1.30586
H          4.91453         9.49497        -1.38666
O         -1.90640        -7.71410        -1.72990
O          0.42279        -2.00769        -2.15532
H          0.02844        -1.34094        -2.77628
O         -3.14383        -3.52100         1.28219
O          3.72446        -5.85625        -1.31727
O          2.35112         5.68742         0.65282
O          3.39233        -2.96435         0.99084
O         -0.57310        -5.27238        -2.14530
O          7.80754        -2.28450        -2.21479
H          8.78661        -2.32861        -2.38476
O          3.27560         1.25965         0.31973
O         -2.44090         5.51011        -2.14907
O         -4.98671         2.41884         1.09891
H         -5.81412         1.98892         1.43468
O         -7.63152         2.19209         1.24227
H         -7.66065         2.98318         1.82910
O         -3.61234         0.59591         0.61876
O         -1.01466         7.20456         1.53750
O         -7.54726        -2.06684         1.70757
O          8.62115         0.73416         1.70790
H          7.83825         1.31199         1.82550
O        -10.17895         1.00053        -0.85214
O         -5.99341         5.48355         2.63524
H         -6.85965         5.95815         2.69122
O         -2.02899        -7.11352         0.63028
H         -2.27164        -7.93181         1.11312
O         -3.47688         7.44219         1.86793
H         -3.41846         6.46458         2.00972
O         -3.35776        -4.99538        -2.03285
O          0.49541         7.36340         1.60605
O          3.19955        -9.06005         3.09525
H          2.60970        -8.27548         3.19391
O          2.93502       -11.71534         2.56337
H          3.14263       -11.14917         3.35142
O          9.97274        -1.08155        -1.77696
O         -4.51723         9.58994        -0.94895
H         -3.93439         9.17457        -1.63123
O         -5.01926        -2.04956         1.46577
O          3.74930         7.58721         1.73955
H          3.30745         6.74442         1.99057
O          7.37985        -1.68666         1.29494
O          6.67302         8.69383        -1.02277
H          6.66788         8.04709        -1.76700
O          1.86126       -10.96572         1.94267
O          1.16135         4.51096        -2.64683
O          5.29589        -4.86621         1.98342
O         -2.74348         7.89032        -1.67292
H         -2.59059         7.21961        -2.38780
O         -5.71618        -5.80538        -2.05305
H         -4.91278        -5.79922        -2.62824
O         -7.92153         1.50114        -2.35052
H         -7.00495         1.56946        -2.75040
O          9.84512        -5.66136         0.40197
H          9.50154        -5.92941        -0.47485
O          2.65480        -6.86563         1.86983
O          1.79940        -4.60812        -2.15057
H          0.97356        -4.36002        -2.63186
O         -1.06159        -4.52108         1.25870
H         -1.09384        -3.87833         1.99907
O         -6.52856         3.90036        -1.85944
H         -6.04713         3.21195        -2.40447
O         -2.89704         1.18784        -2.97824
H         -3.81148         1.54647        -3.16341
O         -9.04762        -3.54037        -1.28138
H         -8.39131        -4.15518        -1.67428
O         -1.89669        -1.06016         1.39995
H         -2.60513        -1.27997         2.04452
O         -9.53925         3.53092        -1.60126
H         -9.12088         2.79972        -2.12229
O          1.21144        -0.41277         1.02498
H          1.31050        -1.27252         1.50006
O         -3.32857         4.64265         1.29270
H         -3.97266         4.03087         1.73044
O          3.60913         5.27819        -2.83421
H          3.95021         6.17173        -3.06368
O          5.63228        -7.67971        -0.27470
H         11.96735        -1.13182         0.57335
H         11.60033         1.18315         1.33724
H         10.24266         3.26941         1.39035
H          9.15200         5.39686         1.09080
H          8.02605         7.42024         1.14643
H          6.61253         9.48407         1.75283
H          4.47597        10.72485         1.59972
H          2.16022        11.01831         0.31658
H         -0.21458        10.99678         0.34588
H         -2.63358        10.95571         0.57359
H         -5.01497        10.62547         1.80709
H         -7.10889         9.32195         1.90513
H         -8.52112         7.51503         0.88092
H         -9.79294         5.53145         0.19402
H        -10.42022         3.31114         1.59874
H        -12.22826         1.09040         1.78976
H        -11.92687        -1.27814         1.81347
H        -10.92327        -3.35981         1.17840
H         -9.70240        -5.63476         0.77516
H         -8.37193        -7.74260         0.74365
H         -7.01480        -9.87890         0.69955
H         -4.89107       -11.03410         0.38422
H         -2.54038       -10.98907         0.14520
H         -0.05467       -11.01846         0.74323
H          2.92386       -10.60282         0.15405
H          4.90376       -10.89252         1.93782
H          7.02647        -9.79197         1.65953
H          8.41145        -7.52241         1.39235
H          9.17459        -4.82776         2.15180
H         10.82440        -3.42000        -0.09313
