         349
 CSIRO Nanostructure Databank - Neutral Graphene Oxide Data Set
C          1.14737         3.46715         0.64204
C         -0.03795         4.16581         0.69111
C          1.12271         6.28114         0.31572
C         -0.05112         5.57326         0.52738
C          1.07056         7.78022         0.06866
C          0.17403         8.50045         1.04863
C          1.63729        10.48138         1.07410
C          0.42454         9.74364         1.48417
C          1.77291        12.00904         1.27688
C          0.68089        12.75919         1.88906
C          1.60179        14.84938         1.03000
C          0.60459        14.11208         1.74518
C          1.55338        16.28097         0.99365
C          0.43140        17.00236         1.37066
C          1.24795        19.13993         0.51894
C          0.31296        18.42201         1.21217
C          1.06119        20.57864         0.01376
C         -0.04953        21.37963         0.65081
C          1.13134        23.55270         0.48310
C         -0.02553        22.73541         0.77067
C          1.15248        24.96219         0.50408
C         -0.06280        25.74675         0.69061
C          1.18390        27.86716         0.89824
C         -0.06878        27.09464         0.83874
C          1.21363        29.34245         0.74440
C          3.58336         3.41796         0.30598
C          2.38307         4.14478         0.41352
C          3.57273         6.26588        -0.04945
C          2.36809         5.58044         0.24037
C          3.60449         7.66315        -0.26636
C          2.43624         8.42902        -0.02724
C          3.72417        10.51659        -0.31926
C          2.56065         9.81384         0.14621
C          3.57388        12.00269        -0.58835
C          2.68744        12.74530         0.39095
C          3.54288        14.87300        -0.63679
C          2.62118        14.12349         0.32040
C          3.91085        16.25766        -0.07544
C          2.81991        17.06005         0.68300
C          3.59615        19.20569        -0.53553
C          2.44008        18.40700         0.01650
C          3.61301        20.67634        -0.34684
C          2.38836        21.31712         0.15259
C          3.63121        23.55741        -0.03650
C          2.40842        22.83489         0.34776
C          3.60123        25.00343        -0.01794
C          2.38961        25.66022         0.30722
C          3.55948        27.90062        -0.08379
C          2.44485        27.11704         0.57421
C          3.65063        29.34015         0.36804
C          2.38020        30.01677         0.58505
C          6.02774         3.36665         0.02834
C          4.83004         4.05704         0.10936
C          5.97609         6.10050        -0.78314
C          4.89505         5.56769         0.15046
C          6.01042         7.60961        -0.78193
C          4.86347         8.34444        -0.56432
C          6.07129        10.47654        -1.12063
C          4.84672         9.79900        -0.71619
C          6.05377        11.96393        -1.32086
C          4.87332        12.74386        -0.83891
C          6.08101        14.92146        -1.26941
C          4.84491        14.09847        -0.89313
C          6.02987        16.24691        -0.45779
C          4.87290        17.12632        -0.86864
C          6.08571        19.19169        -0.22255
C          4.87199        18.47163        -0.63343
C          6.09125        20.67892        -0.12639
C          4.79846        21.39579        -0.29551
C          6.09136        23.53182        -0.41963
C          4.80264        22.82897        -0.22374
C          6.08510        25.01993        -0.39022
C          4.82091        25.74699        -0.16675
C          6.06783        27.87842        -0.04931
C          4.86277        27.15381        -0.03260
C          6.11141        29.29789         0.11878
C          4.85709        29.98786         0.38052
C          8.50298         3.38104         0.08789
C          7.28920         4.05926        -0.11231
C          8.52125         6.14023        -0.54361
C          7.30051         5.44817        -0.43087
C          8.53493         7.58358        -0.83081
C          7.25324         8.23934        -1.33846
C          8.51728        10.41784        -1.45040
C          7.23241         9.74876        -1.22278
C          8.57120        11.88341        -1.58663
C          7.32924        12.70971        -1.61466
C          8.63038        14.99450        -1.20526
C          7.38433        14.12170        -0.98373
C          8.64518        16.31148        -0.71994
C          7.37418        16.94577        -0.26412
C          8.54987        19.22691        -0.72598
C          7.37530        18.44263        -0.24463
C          8.52706        20.69532        -0.51981
C          7.39077        21.38745        -0.26177
C          8.60235        23.62173        -0.52349
C          7.39826        22.87308         0.02656
C          8.61898        24.99259        -0.45977
C          7.38078        25.69529         0.07382
C          8.59690        27.90491        -0.46484
C          7.31649        27.15500        -0.34131
C          8.59663        29.34457        -0.14173
C          7.34125        29.98245         0.08720
C         10.98193         3.37623         0.18237
C          9.74053         4.05447        -0.04549
C         11.03915         6.11339        -0.71631
C          9.73677         5.43321        -0.38237
C         10.96956         7.59369        -0.38967
C          9.70649         8.27992        -0.75351
C         11.08941        10.44952        -1.00350
C          9.80689         9.69064        -1.19392
C         11.01466        11.96225        -1.02062
C          9.81484        12.37375        -1.84020
C         11.12034        15.02636        -1.21220
C          9.87940        14.52632        -1.64870
C         11.11682        16.40037        -0.85834
C          9.86371        17.04663        -0.73988
C         11.12573        19.26749        -0.71482
C          9.85471        18.51701        -0.87115
C         11.07178        20.63543        -0.64074
C          9.80570        21.37917        -0.83105
C         11.12644        23.57077        -0.77655
C          9.82227        22.86772        -0.90103
C         11.08409        25.04631        -1.11188
C          9.83660        25.75702        -0.63604
C         11.09669        27.88208        -0.47265
C          9.86296        27.13543        -0.47583
C         11.07982        29.31380        -0.19850
C          9.82833        29.98916        -0.01463
C         13.43615         3.37515         0.46302
C         12.21744         4.04856         0.18952
C         13.45648         6.15711        -0.06384
C         12.26795         5.45823        -0.13039
C         13.53215         7.56792        -0.61976
C         12.24804         8.35199        -0.41395
C         13.53407        10.55584        -0.79590
C         12.25059         9.80709        -0.73857
C         13.52565        12.05248        -0.83145
C         12.31124        12.77367        -1.16814
C         13.55118        14.93699        -0.98066
C         12.32291        14.20018        -1.16274
C         13.58959        16.34835        -0.85046
C         12.37285        17.12487        -0.78136
C         13.63311        19.28223        -0.77517
C         12.39049        18.53260        -0.68615
C         13.53734        20.70046        -0.83714
C         12.31377        21.39596        -0.27036
C         13.56958        23.63944        -0.31473
C         12.27370        22.89595        -0.54530
C         13.55719        25.09018        -0.74560
C         12.35937        25.78989        -0.79699
C         13.56773        27.97913        -0.69843
C         12.30957        27.21112        -0.64974
C         13.56420        29.38016        -0.21420
C         12.29350        30.00260        -0.03859
C         15.89478         3.39249         0.73342
C         14.66022         4.06474         0.50632
C         15.88533         6.20165         0.48024
C         14.67905         5.49455         0.31670
C         15.87968         7.67738         0.50865
C         14.66384         8.38064        -0.00861
C         15.98141        10.53887         0.05585
C         14.79577         9.80981        -0.43891
C         15.87864        12.04494         0.13698
C         14.72272        12.70297        -0.61520
C         16.09386        14.89404        -0.69783
C         14.80297        14.15459        -0.90505
C         16.06811        16.36534        -0.54288
C         14.84067        17.07592        -0.68507
C         16.12694        19.13176        -0.35955
C         14.87628        18.50312        -0.68841
C         16.28427        20.52290        -0.65206
C         14.58421        21.58567        -1.25733
C         16.10538        23.58445        -0.95473
C         14.73471        22.91348        -0.93290
C         15.99879        25.02094        -0.49465
C         14.83008        25.74709        -0.67304
C         16.18699        27.96146        -0.60752
C         14.86395        27.22865        -0.78144
C         16.05521        29.35645        -0.00240
C         14.76790        29.99684         0.10947
C         18.35323         3.40099         0.99454
C         17.10148         4.08716         0.79942
C         18.32222         6.25869         0.86933
C         17.10908         5.52564         0.71045
C         18.34122         7.70431         0.84835
C         17.14301         8.42635         0.61651
C         18.31961        10.62424         0.95466
C         17.09753         9.86260         0.53961
C         18.40819        12.06290         0.54096
C         17.24799        12.67735        -0.23263
C         18.57120        14.79808        -0.34154
C         17.23494        14.19421         0.03356
C         18.57967        16.30638        -0.37783
C         17.28182        17.01039        -0.23795
C         18.56524        19.04878         0.31701
C         17.30031        18.39854         0.01403
C         18.60285        20.37980         0.77842
C         16.92249        21.46244         0.15000
C         18.32908        23.45136         0.42243
C         17.14535        22.83225        -0.10030
C         18.37166        24.88939         0.48787
C         17.13759        25.64461         0.18875
C         18.48095        27.81554         0.45110
C         17.20217        27.17109         0.19411
C         18.57522        29.30476         0.19452
C         17.21736        29.96476         0.38803
C         19.51874         4.09773         1.11236
C         20.73638         6.24388         1.25801
C         19.53918         5.53841         1.07206
C         20.73835         7.64420         1.29689
C         19.57607         8.38444         1.08678
C         20.83949        10.56316         0.82547
C         19.60031         9.87871         1.36601
C         20.89878        11.87543         0.48459
C         19.73771        12.71626         0.35696
C         21.02069        14.82484        -0.08956
C         19.81278        14.06705        -0.01024
C         21.03332        16.21344        -0.15581
C         19.85803        17.00477        -0.15519
C         20.99967        19.23413         0.17083
C         19.83200        18.40798         0.10028
C         20.93713        20.60442         0.35812
C         19.69917        21.25696         0.64872
C         20.66478        23.45354         1.16818
C         19.52943        22.70516         0.77192
C         20.65792        24.83118         1.27552
C         19.50563        25.58978         0.94211
C         20.63683        27.76960         1.54019
C         19.54284        27.06508         0.98775
C         20.62651        29.18779         1.61967
C         19.65257        29.93933         1.02554
O          7.57044        17.67208         0.98747
O          7.41047        25.62521         1.48057
O          6.40690        12.44404        -2.70550
O          2.60158        21.89140         1.47306
O         16.66485        26.45757         1.34278
O         14.44499        10.02286        -1.84430
O          5.16492        15.93993         0.76613
O          9.29514         9.80533        -2.58939
O         14.80179         8.21234         1.41894
O          2.13137        27.43187         1.95753
O          7.80449        27.51006        -1.67266
O          9.03476        18.87770        -2.06399
O         14.22853        27.73568        -2.01203
O         15.77580        14.42021        -2.04176
O          9.72250        22.07569        -2.14285
O          5.94066        19.84504         1.09186
O         15.70298        20.95498        -1.85714
O          2.40195        11.04228         2.20047
O          9.92514        13.52064        -2.60104
O         11.58815         8.03562         0.86073
O         18.04896        11.71273         1.93009
O          6.18824        24.30026        -1.66446
O         18.59237        15.47409        -1.61632
O         17.44090        20.92232         1.35049
O          2.59452        18.58536        -1.42935
O          2.84419        15.02618        -1.88438
H          2.62403        14.11783        -2.20002
O          6.04387        15.25948        -2.66027
H          6.02594        14.41556        -3.16845
O         11.17915         6.02992        -2.17104
H         12.03736         6.45742        -2.41214
O          0.45519         7.95880        -1.25106
H          0.98543         7.44593        -1.89701
O          3.37010        17.43922         1.96468
H          4.31399        17.15697         1.99445
O         10.56247        12.29403         0.35145
H         11.27309        12.03277         0.97657
O          2.84003        12.08643        -1.87237
H          3.39203        11.64481        -2.55428
O         17.52024        12.42903        -1.61622
H         16.94724        13.03328        -2.15524
O         19.71662         9.96694         2.81593
H         19.35806        10.84927         3.06945
O          7.46672        22.97834         1.46905
H          7.46184        23.96258         1.70342
O          5.65494         5.70166        -2.14224
H          6.22215         6.24581        -2.73946
O         17.08001        14.47174         1.43938
H         16.34753        13.89768         1.78210
O          5.32355         5.92878         1.50030
H          4.65322         5.59000         2.12994
O          7.24253         7.95655        -2.78892
H          8.01907         8.44720        -3.16066
O          7.40487        13.82056         0.43533
H          7.33122        14.65534         0.94628
O         10.99706        25.07898        -2.57902
H         10.69762        25.97363        -2.84719
O          3.17936        27.94506        -1.50146
H          3.93536        28.31441        -2.00565
O         15.54915        12.34277         1.53887
H         16.25783        11.91058         2.08566
O         12.43369        21.28888         1.20285
H         12.49299        20.33647         1.43320
O         18.96204        29.52496        -1.20433
H         18.26617        29.08578        -1.75864
O         16.75871        28.10158        -1.93804
H         15.99765        28.26017        -2.54744
O          0.71869        20.49516        -1.39468
H          1.29461        19.79463        -1.79566
O         13.70821         7.44463        -2.05601
H         14.60135         7.08676        -2.24123
O         13.79514        23.69131         1.13074
H         13.42128        22.86184         1.51625
O         16.60625        23.61760        -2.32094
H         16.51311        22.70537        -2.67917
H          1.15688         2.37522         0.77037
H         -0.98600         3.63622         0.85853
H         -1.01430         6.10116         0.56056
H         -0.73547         7.98343         1.38909
H         -0.25041        10.21559         2.21277
H         -0.03921        12.23003         2.52703
H         -0.20268        14.65278         2.25647
H         -0.46873        16.47451         1.71606
H         -0.61011        18.90196         1.56752
H         -0.98436        20.85155         0.89237
H         -0.93584        23.23778         1.13132
H         -1.02423        25.21413         0.67241
H         -1.02406        27.63718         0.90280
H          0.26828        29.89410         0.86006
H          3.54746         2.31892         0.35898
H          2.37877        31.11784         0.59164
H          6.03671         2.26960         0.12071
H          4.89711        31.06165         0.62237
H          8.49325         2.31350         0.35296
H          7.33958        31.06725         0.27775
H         10.95783         2.30151         0.41727
H          9.85125        31.05833         0.24779
H         13.42205         2.28875         0.63634
H         12.26671        31.06334         0.25471
H         15.89184         2.29901         0.85577
H         14.74624        31.02092         0.51393
H         18.34948         2.30265         1.04729
H         17.18878        30.99139         0.78656
H         20.47085         3.56795         1.26196
H         21.67189         5.69135         1.42492
H         21.68031         8.15761         1.53157
H         21.78289        10.00021         0.86691
H         21.87762        12.30465         0.22368
H         21.98478        14.30685         0.01338
H         22.00885        16.71894        -0.10571
H         21.98090        18.77703        -0.01891
H         21.86232        21.19279         0.27821
H         21.58238        22.91370         1.44115
H         21.57151        25.33455         1.61777
H         21.48077        27.23102         1.99046
H         21.44236        29.68482         2.16484
H         19.70030        31.03770         1.05794
