         404
 CSIRO Nanostructure Databank - Neutral Graphene Oxide Data Set
C          1.40654         3.40441         0.59589
C          0.19983         4.08845         0.75592
C          1.21381         6.23074         0.12046
C          0.10683         5.47219         0.55646
C          1.19464         7.63614         0.05982
C         -0.04350         8.38285         0.13049
C          1.21119        10.42229         0.73182
C         -0.05543         9.72360         0.31848
C          1.17883        11.93344         0.66977
C          0.01547        12.64231         0.93317
C          1.21515        14.76506         1.04982
C          0.02238        14.05234         1.00877
C          1.20837        16.25243         0.77201
C          0.11090        17.13164         1.28781
C          1.33815        19.37019         1.66102
C          0.16868        18.44713         1.61608
C          1.24638        20.78709         1.13096
C         -0.01500        21.39705         0.66473
C          1.17714        23.49034         0.19321
C         -0.03395        22.69347         0.27175
C          1.14606        24.90065         0.01574
C         -0.08185        25.63393        -0.01803
C          1.10810        27.76922        -0.17469
C         -0.09660        26.99930        -0.13769
C          1.05477        29.20789        -0.29576
C         -0.13867        29.95003        -0.51046
C          1.10101        32.06933        -0.50863
C         -0.11548        31.32943        -0.57706
C          1.10270        33.53021        -0.41696
C         -0.00907        34.33371        -0.58765
C          1.17067        36.43399        -0.04963
C          0.02629        35.75203        -0.42896
C          1.27130        37.86952         0.00437
C          3.80372         3.44325         0.06600
C          2.56737         4.07714         0.14678
C          3.70780         6.26320        -0.39797
C          2.41700         5.47971        -0.39882
C          3.64738         7.71899        -0.41253
C          2.42328         8.39466        -0.12600
C          3.60375        10.55512        -0.12175
C          2.42599         9.79524         0.08048
C          3.63082        11.98530         0.17236
C          2.41806        12.63824         0.58265
C          3.74540        14.53886         1.26442
C          2.44780        14.01298         0.96451
C          3.99920        16.76203         1.92479
C          2.90544        17.55789         2.30880
C          3.78824        19.34683         0.95146
C          2.69969        18.77837         1.66647
C          3.70270        20.72700         0.53068
C          2.49071        21.43630         0.64124
C          3.64168        23.50624        -0.05177
C          2.42838        22.80638         0.26156
C          3.58920        24.91796        -0.20043
C          2.37549        25.63579        -0.09715
C          3.57549        27.84011         0.02741
C          2.35777        27.08660        -0.11921
C          3.47684        29.23922         0.10956
C          2.26811        29.94294        -0.20177
C          3.64053        32.06794        -0.62493
C          2.30979        31.35831        -0.37977
C          3.63920        33.50006        -0.14034
C          2.34685        34.15328         0.08195
C          3.67278        36.34273         0.34460
C          2.36920        35.66595         0.31861
C          3.69477        37.78198         0.45544
C          2.44945        38.50104         0.30272
C          6.22501         3.51191        -0.37147
C          4.98592         4.14922        -0.31680
C          6.11272         6.31405        -1.05242
C          4.89951         5.58641        -0.52740
C          6.12962         7.76395        -0.63925
C          4.82536         8.47603        -0.57650
C          5.98592        10.67111        -0.88302
C          4.79434         9.88272        -0.50312
C          6.02124        12.15348        -0.57211
C          4.82288        12.73699         0.07497
C          6.18325        14.79249         0.69119
C          4.90315        14.02354         0.68010
C          6.20996        16.35986         0.82780
C          5.02445        17.21502         1.10086
C          6.11771        19.22732         0.10762
C          4.97465        18.59093         0.71468
C          6.06576        20.59575        -0.20076
C          4.87863        21.37493         0.02249
C          6.07662        23.47800        -0.60954
C          4.86263        22.77370        -0.22145
C          6.07513        24.86740        -0.66572
C          4.82789        25.64418        -0.51166
C          6.23269        27.75254        -0.14142
C          4.87766        27.14383        -0.24770
C          6.47874        29.00476         0.35684
C          4.59032        30.08818         0.46864
C          6.15230        31.98904         0.16477
C          4.80317        31.34502         0.02088
C          6.13745        33.47223         0.05694
C          4.81692        34.17651         0.05182
C          6.13141        36.28340         0.37784
C          4.84751        35.60160         0.30604
C          6.13879        37.70658         0.71099
C          4.90173        38.42286         0.71020
C          8.67103         3.51071        -0.53530
C          7.45594         4.19971        -0.61097
C          8.61529         6.33172        -1.07034
C          7.44412         5.63352        -0.84941
C          8.67181         7.78951        -1.15755
C          7.39838         8.51301        -0.84920
C          8.56479        10.75297        -1.22076
C          7.28847         9.96923        -1.16224
C          8.55110        12.16218        -0.75054
C          7.34450        12.82435        -0.42912
C          8.57684        14.88803         0.04048
C          7.36601        14.15857         0.06674
C          8.57941        16.33068         0.11992
C          7.38255        17.06177         0.28064
C          8.55919        19.11311        -0.34314
C          7.34866        18.45708        -0.01969
C          8.55429        20.51080        -0.79831
C          7.24131        21.27483        -0.77755
C          8.53569        23.38384        -1.03506
C          7.30761        22.74896        -0.81460
C          8.59190        24.82484        -1.33131
C          7.24264        25.62041        -1.11723
C          8.62315        27.78402        -0.95395
C          7.47582        26.95239        -0.44015
C          8.64752        29.14288        -0.75171
C          7.54163        29.86535        -0.12871
C          8.59813        32.06618        -0.52692
C          7.42089        31.26090        -0.19548
C          8.62597        33.49904        -0.46620
C          7.30188        34.24712        -0.51862
C          8.56298        36.40429         0.00036
C          7.31200        35.63501         0.07661
C          8.59978        37.67564         0.77537
C          7.35119        38.33375         0.99399
C         11.13206         3.49488        -0.73545
C          9.91217         4.15782        -0.77916
C         11.18010         6.32522        -1.35719
C          9.87624         5.57418        -1.20773
C         11.21197         7.84850        -1.52772
C          9.84862         8.49326        -1.25201
C         11.13890        10.69170        -0.91371
C          9.86264         9.98287        -1.27142
C         11.05721        12.10935        -0.50138
C          9.80441        12.80408        -0.48869
C         11.03824        14.89886        -0.10346
C          9.80003        14.19576        -0.18783
C         11.03577        16.32060        -0.07827
C          9.80329        17.03108        -0.07869
C         11.04449        19.15366        -0.39391
C          9.80066        18.43886        -0.26283
C         11.01534        20.57619        -0.58061
C          9.81483        21.27177        -0.74243
C         11.00825        23.43247        -0.70380
C          9.79972        22.69526        -0.87713
C         10.97152        24.90642        -0.60935
C          9.79635        25.59065        -1.12819
C         11.13357        27.74088        -1.18363
C          9.82958        27.04243        -1.53545
C         11.14377        29.19837        -1.32441
C          9.81831        29.94183        -1.13464
C         11.02933        32.06491        -0.82112
C          9.81255        31.37313        -0.78353
C         11.03866        33.47582        -0.81522
C          9.83450        34.22229        -0.62298
C         11.08216        36.45495         0.02043
C          9.84192        35.73507        -0.43634
C         11.05221        37.55305         0.94723
C          9.79492        38.17841         1.25482
C         13.60331         3.49671        -0.65996
C         12.38421         4.18974        -0.81880
C         13.57842         6.33806        -0.67902
C         12.40245         5.61506        -0.94821
C         13.55361         7.78035        -0.54647
C         12.36732         8.51261        -0.78201
C         13.49040        10.59513        -0.08214
C         12.35240         9.91119        -0.55584
C         13.49049        12.04065         0.03003
C         12.25560        12.76810        -0.19096
C         13.49449        14.89950         0.05471
C         12.26315        14.19019        -0.06868
C         13.48021        16.30358         0.00705
C         12.26331        17.02884        -0.08274
C         13.51084        19.15729        -0.05137
C         12.26587        18.45588        -0.22032
C         13.56879        20.59503        -0.35763
C         12.27060        21.32565        -0.71112
C         13.50858        23.48359        -0.49197
C         12.26057        22.78938        -0.59456
C         13.56470        24.90832        -0.55658
C         12.29637        25.65777        -0.53328
C         13.58407        27.77712        -0.86851
C         12.31571        27.08949        -0.89965
C         13.59764        29.20855        -0.88507
C         12.38217        29.90284        -1.00264
C         13.62115        32.07269        -0.56481
C         12.30678        31.32335        -0.69032
C         13.54978        33.51372        -0.86008
C         12.32899        34.06587        -1.11087
C         13.57077        36.39651         0.13924
C         12.32593        36.11174        -0.48599
C         13.52406        37.46937         1.09692
C         12.26931        38.06452         1.42197
C         16.07118         3.49233        -0.45656
C         14.82995         4.18416        -0.57881
C         16.00236         6.34730        -0.33158
C         14.80594         5.62569        -0.52204
C         15.95706         7.72728        -0.02013
C         14.74345         8.44785        -0.10285
C         15.86839        10.56040         0.55430
C         14.71786         9.87352         0.15838
C         15.81797        12.00440         0.96259
C         14.65045        12.73982         0.37177
C         15.93208        14.84272         0.54524
C         14.71838        14.17100         0.30683
C         16.02730        16.29430         0.32867
C         14.74580        17.03836         0.02608
C         15.88490        19.18981         0.69798
C         14.68291        18.48718         0.24381
C         15.89209        20.72159         0.59063
C         14.72596        21.38877         0.00377
C         15.98624        23.47884        -0.16794
C         14.73873        22.76428        -0.25461
C         16.01439        24.87588        -0.40007
C         14.78675        25.60925        -0.57517
C         16.03659        27.77134        -0.76245
C         14.81025        27.06225        -0.72861
C         16.09020        29.20125        -0.92580
C         14.85798        29.92264        -0.85399
C         16.07828        32.05107        -0.97822
C         14.87437        31.33909        -0.83491
C         16.07439        33.54470        -0.87633
C         14.79329        34.34423        -0.85537
C         15.97394        36.12320         0.47225
C         14.77862        35.66170        -0.11864
C         15.95896        37.31407         1.29689
C         14.73770        37.93373         1.63597
C         18.54637         3.51004        -0.25644
C         17.29172         4.17023        -0.39508
C         18.58706         6.38476        -0.07284
C         17.28156         5.63974        -0.45374
C         18.47517         7.74436         0.46112
C         17.15461         8.35949         0.56197
C         18.37458        10.57239         1.03485
C         17.09136         9.84773         0.91292
C         18.36884        12.00522         1.01470
C         17.14628        12.72581         0.86810
C         18.38247        14.86535         0.99858
C         17.15457        14.13028         0.82056
C         18.35481        16.30982         1.12941
C         17.20083        17.04304         0.84171
C         18.33588        19.24788         1.02866
C         17.17376        18.48060         0.85523
C         18.37861        20.66634         0.71154
C         17.19038        21.39011         0.46562
C         18.45736        23.43107        -0.02251
C         17.20447        22.76213         0.09342
C         18.46604        24.82461        -0.34863
C         17.27395        25.54759        -0.45075
C         18.58704        27.75037        -0.79838
C         17.28959        27.02942        -0.53085
C         18.54390        29.14161        -1.32702
C         17.32041        29.92308        -1.16306
C         18.51881        32.19929        -1.18601
C         17.30639        31.36135        -1.17498
C         18.51690        33.48225        -0.53271
C         17.28427        34.15550        -0.30177
C         18.45099        36.00619         0.78845
C         17.23377        35.42516         0.30327
C         18.41230        37.22922         1.53675
C         17.16849        37.83412         1.81156
C         19.71673         4.18402         0.07111
C         20.84166         6.25842         0.89740
C         19.75080         5.58092         0.30156
C         20.80244         7.62245         1.14486
C         19.60715         8.39141         0.96908
C         20.78201        10.58545         1.32596
C         19.57310         9.84797         1.16788
C         20.79445        11.96287         1.30889
C         19.60204        12.72106         1.13732
C         20.81982        14.91164         1.33664
C         19.59788        14.15957         1.14905
C         20.81817        16.25018         1.56300
C         19.56283        17.00517         1.59519
C         20.82203        19.32598         1.34526
C         19.56219        18.59407         1.49957
C         20.84559        20.60109         0.88004
C         19.63780        21.34490         0.58962
C         20.92621        23.41604         0.00201
C         19.67260        22.70958         0.20146
C         20.97786        24.67849        -0.48255
C         19.74914        25.43718        -0.77208
C         21.05780        27.63469        -1.34222
C         19.79280        26.90231        -1.11636
C         20.97378        28.89338        -1.83539
C         19.70485        29.57499        -1.94312
C         20.92757        32.53076        -1.60650
C         19.72231        31.83075        -1.79694
C         20.94778        33.64735        -0.78422
C         19.74271        34.16015        -0.25438
C         20.88667        36.00724         0.98376
C         19.70649        35.39441         0.50877
C         20.83899        37.19146         1.72744
C         19.62375        37.80167         2.00693
O          7.75938        20.68618        -2.02331
O          6.36463        32.84843         1.36244
O         12.32525        35.34982        -1.65583
O         12.92618        31.63495         0.64570
O          7.81744        10.39784        -2.44211
O          4.71724        26.60261        -1.63255
O         10.73513        10.52098        -2.32171
O         15.61718        20.05737         1.86910
O         19.40520        17.86853         2.75608
O         19.73464        30.75406        -2.70122
O          1.19520        20.49375         2.59032
O          9.04569        36.48360        -1.42006
O          6.53539        15.45947         1.93843
O         18.11081        27.61650         0.57229
O          6.95601         8.14598         0.51564
O         11.50035        25.42639         0.68695
O         15.68369        16.67918        -1.06440
O         13.15500        20.82843        -1.76360
O         19.60341        25.90851        -2.18884
O         10.52288         5.72808        -2.53258
O          3.87706        15.43236         2.34205
O          7.73808        25.33519        -2.41532
O         15.59114        34.27275        -2.08100
O         16.89319         8.82584         1.95323
O          5.57360        29.52155         1.28152
O          2.07772        16.69617         0.02406
O         18.15981         6.22237        -1.47006
O         10.35969        29.70998        -2.49275
O          5.70356        11.66657        -1.91753
O          2.18502        34.72330         1.42728
O          7.91233        26.49159         0.90759
H          8.08293        27.28288         1.46368
O          7.03189        34.42773        -1.94106
H          7.66675        35.11070        -2.26332
O          2.00450        17.01689         3.16959
H          2.34250        16.12593         3.41657
O          2.11164         5.29781        -1.83561
H          2.87792         4.83576        -2.23807
O         11.51222         8.08204        -2.92592
H         10.97882         7.43501        -3.44139
O          9.73472        27.08696        -2.99190
H          9.80508        28.04011        -3.24612
O          5.92514         6.36116        -2.50994
H          6.03912         5.45169        -2.85792
O          1.36613        10.15135         2.17857
H          1.39502         9.17622         2.28558
O         15.52783        11.95558         2.42242
H         16.11505        11.27281         2.81462
O          3.81892        32.11607        -2.07335
H          3.76536        31.19993        -2.41781
H          1.47360         2.34022         0.86594
H         -0.68256         3.54261         1.11901
H         -0.82890         5.98126         0.82868
H         -0.98831         7.85049        -0.05332
H         -1.01001        10.26819         0.31132
H         -0.94571        12.11980         1.03143
H         -0.93895        14.58584         1.03304
H         -0.86641        16.64008         1.42542
H         -0.76976        18.90361         1.97423
H         -0.95086        20.82671         0.74920
H         -0.99422        23.15297        -0.00077
H         -1.03820        25.09905         0.05271
H         -1.06521        27.51621        -0.16722
H         -1.10330        29.43288        -0.60445
H         -1.06540        31.86961        -0.69327
H         -0.95927        33.88725        -0.91469
H         -0.88362        36.32293        -0.66629
H          0.36317        38.46332        -0.17850
H          3.89042         2.38366         0.35189
H          2.47634        39.59855         0.37193
H          6.27227         2.43132        -0.16836
H          4.92082        39.51193         0.86620
H          8.66808         2.43817        -0.28990
H          7.35586        39.36894         1.36691
H         11.14965         2.41453        -0.52704
H          9.79489        39.09455         1.86364
H         13.59381         2.39818        -0.60327
H         12.25899        38.93939         2.08817
H         16.06306         2.39222        -0.42863
H         14.73977        38.78781         2.32876
H         18.56731         2.41285        -0.33190
H         17.13710        38.74544         2.42704
H         20.63380         3.60228         0.24717
H         21.75031         5.68960         1.14370
H         21.69630         8.10155         1.56604
H         21.73537        10.05255         1.43913
H         21.75876        12.47522         1.42354
H         21.78042        14.37949         1.35204
H         21.75925        16.76825         1.79375
H         21.76060        18.83509         1.63776
H         21.81897        21.09975         0.78111
H         21.87211        22.89731         0.20758
H         21.95160        25.15104        -0.67308
H         22.02143        27.11077        -1.28400
H         21.87252        29.43746        -2.15741
H         21.84050        32.18061        -2.10518
H         21.89727        34.17239        -0.61648
H         21.86408        35.54528         0.79035
H         21.77423        37.63792         2.09312
H         19.58781        38.73357         2.58875
