         480
 CSIRO Nanostructure Databank - Neutral Graphene Oxide Data Set
C         37.82461        50.10891        -0.68856
C         37.07915        50.43953        -1.81871
C         38.72659        52.10296        -2.39750
C         37.54687        51.42185        -2.69390
C         40.05102        48.77810         0.70572
C         39.81500        50.27331         0.81875
C         39.03695        50.75830        -0.40074
C         40.72155        52.59741        -0.92560
C         39.46498        51.80520        -1.23973
C         40.56894        54.08881        -1.21503
C         42.38757        48.84258         1.56174
C         41.16634        48.14599         1.09092
C         42.39476        50.34460         1.47049
C         41.11858        51.04756         1.07787
C         42.44635        53.20670         0.76090
C         41.10456        52.48478         0.56359
C         42.53728        54.57570         0.17886
C         41.37861        55.00124        -0.65458
C         44.97618        46.13677         0.82078
C         43.79181        46.71175         1.12137
C         44.97622        48.90537         1.49779
C         43.71725        48.12105         1.54351
C         44.92973        50.34801         1.46160
C         43.71161        51.01910         1.32606
C         45.02256        53.14378         0.70091
C         43.71161        52.40437         0.82398
C         45.01159        54.60312         0.45830
C         43.86763        55.23726         0.03020
C         45.16178        57.19103        -0.68426
C         43.94642        56.58880        -0.45820
C         47.54938        44.92759         0.05019
C         47.43523        46.21963         0.65642
C         46.23145        46.84522         0.96202
C         47.42840        48.93110         1.73162
C         46.19916        48.24021         1.38574
C         47.40080        50.38343         1.82037
C         46.19987        51.07162         1.46350
C         47.46016        53.17898         1.17318
C         46.24454        52.46741         1.18704
C         47.52075        54.63390         0.92447
C         46.24163        55.44235         0.71403
C         47.64453        57.07775        -0.67895
C         46.38728        56.57512        -0.28765
C         47.73669        58.27634        -1.46723
C         49.92261        44.70085         0.65995
C         48.74867        44.24961        -0.02300
C         49.69623        45.89542         1.57753
C         48.74202        46.91141         0.94335
C         49.78735        48.55932         2.47114
C         48.60513        48.14727         1.81392
C         49.83615        50.65378         2.41878
C         48.60813        51.15696         1.89105
C         49.97417        53.05201         1.11704
C         48.67524        52.48833         1.41337
C         50.04934        54.31659         0.50155
C         48.85450        55.18512         0.46982
C         50.10143        56.81740        -0.90876
C         48.88146        56.39441        -0.37872
C         50.16041        58.03582        -1.68590
C         48.93319        58.74053        -1.92574
C         52.40288        42.02843        -0.05144
C         51.32615        42.82466        -0.19332
C         52.30355        44.46205         1.36822
C         51.12757        43.99321         0.65752
C         52.26227        45.79570         1.99824
C         50.99657        46.54450         2.03517
C         52.30956        48.73131         2.32798
C         51.06474        48.01192         2.24809
C         52.33376        50.28688         2.52447
C         51.10410        51.04936         2.02999
C         52.44253        52.84701         0.99251
C         51.18106        52.29540         1.32635
C         52.49774        54.12174         0.36354
C         51.29335        54.84388         0.08669
C         52.57774        56.61645        -1.00130
C         51.33973        56.09936        -0.61322
C         52.65428        57.73990        -1.99985
C         51.38808        58.54840        -2.12561
C         52.69791        60.41923        -2.98100
C         51.48926        59.79397        -2.81267
C         54.71739        40.19085         0.45588
C         54.70530        41.56640         0.88427
C         53.37188        42.24621         1.08516
C         54.74315        44.33590         1.75403
C         53.47221        43.72077         1.42641
C         54.78182        45.72765         2.31589
C         53.52276        46.53472         2.32894
C         54.83398        48.67976         2.29659
C         53.52902        48.03103         2.30031
C         54.89696        50.20905         2.44815
C         53.62398        50.89804         1.99185
C         54.93754        52.77822         1.03425
C         53.66285        52.12058         1.33925
C         54.97200        54.07716         0.45822
C         53.75597        54.74276         0.07992
C         55.05463        56.68205        -0.75326
C         53.79307        55.99899        -0.57334
C         55.07685        58.00708        -1.33834
C         53.89650        58.58782        -1.86048
C         55.11080        60.66450        -2.38465
C         53.90828        59.88413        -2.41428
C         55.13853        62.02048        -2.82132
C         57.16816        40.02120         0.63210
C         55.86059        39.48016         0.24026
C         57.15022        41.46975         1.09074
C         55.88754        42.24715         1.10711
C         57.21816        44.41857         1.25956
C         55.91565        43.66127         1.45456
C         57.27810        45.81187         1.85676
C         56.10193        46.46370         2.52461
C         57.34371        48.69181         2.54250
C         56.01625        47.97396         2.30972
C         57.35416        50.09809         1.98575
C         56.16445        50.78699         1.85005
C         57.40763        52.79974         1.11787
C         56.16404        52.12331         1.32385
C         57.42104        54.14153         0.67641
C         56.21765        54.76733         0.28941
C         57.50191        56.80078        -0.41487
C         56.23995        56.09805        -0.27915
C         57.51730        58.12385        -0.96586
C         56.29885        58.73595        -1.39748
C         57.52839        60.82588        -1.92217
C         56.31137        60.07416        -1.90258
C         57.52664        62.18483        -2.35459
C         56.29720        62.75706        -2.79061
C         59.61527        37.48814        -0.84696
C         58.47116        38.10165        -0.43170
C         59.65951        40.07824         0.36383
C         58.46452        39.39815         0.20068
C         59.67560        41.53443         0.61879
C         58.41384        42.25283         0.94966
C         59.72260        44.31981         1.52931
C         58.42021        43.57735         1.70655
C         59.73119        45.71744         1.67532
C         58.49601        46.46707         1.89751
C         59.78455        48.57147         1.97448
C         58.56623        47.89772         2.10191
C         59.83443        50.00880         1.83713
C         58.61582        50.74034         1.71926
C         59.90678        52.77232         1.15079
C         58.65188        52.11309         1.36031
C         59.95914        54.14516         0.74305
C         58.68720        54.95135         0.82082
C         59.95610        56.85233        -0.23528
C         58.71061        56.20360        -0.01282
C         59.97027        58.18140        -0.75794
C         58.74268        58.83333        -1.07629
C         59.96438        60.92151        -1.59071
C         58.74829        60.19750        -1.52865
C         59.96246        62.30291        -1.97066
C         58.74541        62.94119        -2.34145
C         59.95543        65.04480        -2.66562
C         58.78675        64.32498        -2.69151
C         62.18685        36.30782        -1.83088
C         62.18985        37.48894        -1.03733
C         60.93450        37.96499        -0.42698
C         62.21966        40.13104         0.19152
C         60.95300        39.38597         0.22885
C         62.20127        41.51172         0.63211
C         60.95469        42.21195         0.90644
C         62.17194        44.32063         1.26668
C         60.91392        43.55985         1.27562
C         62.18770        45.65435         1.92389
C         60.96017        46.44159         1.80355
C         62.30404        48.52032         1.95535
C         61.02366        47.82600         1.91800
C         62.31720        49.93475         1.79116
C         61.08414        50.66523         1.66430
C         62.38383        52.70258         1.10704
C         61.12089        52.05283         1.33258
C         62.41653        54.05514         0.58360
C         61.16889        54.76663         0.42215
C         62.41118        56.79194        -0.34283
C         61.19557        56.15816        -0.01920
C         62.42074        58.13502        -0.78678
C         61.21384        58.85074        -0.96727
C         62.40148        60.98008        -1.39926
C         61.20775        60.25161        -1.33502
C         62.39840        62.39905        -1.60556
C         61.17942        63.05031        -1.96125
C         62.42693        65.16183        -2.26738
C         61.19730        64.43832        -2.29628
C         62.48611        66.56956        -2.60343
C         64.63060        36.32465        -1.98209
C         63.35260        35.75816        -2.29772
C         64.65451        37.56429        -1.21728
C         63.40886        38.15947        -0.79144
C         64.69130        40.15992        -0.11440
C         63.42592        39.48058        -0.19044
C         64.67266        41.56224         0.32883
C         63.41843        42.15639         0.80907
C         64.70715        44.25063         1.51480
C         63.45957        43.59746         1.07388
C         64.71509        45.58799         1.75885
C         63.49491        46.35343         2.06964
C         64.78675        48.51137         2.04469
C         63.53473        47.82333         2.02646
C         64.78928        49.89865         1.90443
C         63.56559        50.61080         1.68562
C         64.85636        52.59867         0.89245
C         63.57573        51.98971         1.29851
C         64.88154        54.03859         0.55961
C         63.64077        54.68282         0.28814
C         65.03803        56.67513        -0.66175
C         63.63837        55.92676        -0.57901
C         64.96542        58.18255        -0.62577
C         63.70621        58.78181        -1.12790
C         64.93690        61.05169        -1.24204
C         63.68352        60.26234        -1.42672
C         64.76039        62.49632        -0.81347
C         63.59082        63.14934        -1.49338
C         64.87985        65.23727        -1.77979
C         63.62952        64.51531        -1.84880
C         64.98405        66.59332        -2.44169
C         63.64837        67.25637        -2.63693
C         66.93680        34.15074        -3.95478
C         65.82009        34.55554        -3.28805
C         67.17968        36.20306        -2.05559
C         65.80486        35.74359        -2.48086
C         67.15972        37.47116        -1.19212
C         65.88257        38.18190        -0.91053
C         67.20842        40.19904        -0.17103
C         65.91740        39.52360        -0.40565
C         67.25217        41.61510         0.28377
C         65.95138        42.28693         0.60863
C         67.20636        44.14086         1.61492
C         65.91858        43.35849         1.70184
C         67.10623        45.46219         1.38075
C         66.00155        46.28416         1.90867
C         67.39102        48.54180         2.06067
C         66.09154        47.76789         2.14983
C         67.35271        49.91062         2.12006
C         66.05391        50.69232         2.13593
C         67.41443        52.63883         1.24770
C         66.13386        51.87186         1.18675
C         67.34718        54.11284         1.03252
C         66.08138        54.76346         0.60535
C         67.30248        56.90747         0.41811
C         66.14515        56.13942         0.22694
C         67.31718        58.31694         0.14355
C         66.11222        58.91851        -0.41741
C         67.24822        61.19422        -0.17246
C         66.16799        60.36226        -0.74139
C         67.20875        62.63054        -0.41729
C         66.05376        63.26194        -0.87131
C         67.28918        65.39378        -1.19852
C         66.04928        64.63864        -1.28796
C         67.23723        66.84343        -1.36357
C         66.03093        67.46066        -1.77622
C         66.92772        69.63161        -1.14312
C         65.89634        68.84730        -1.65707
C         69.53897        33.00312        -4.92663
C         69.43652        34.45735        -4.67669
C         68.13220        35.00868        -4.09633
C         69.45031        37.02968        -3.08718
C         68.16865        36.25333        -3.24055
C         69.59151        38.01679        -1.94784
C         68.43053        38.23701        -1.02535
C         69.72217        40.07121         0.13305
C         68.40888        39.58251        -0.40847
C         69.79521        41.43957         0.73999
C         68.54490        42.25626         0.67769
C         69.84874        44.19985         1.81718
C         68.51358        43.37830         1.69485
C         69.99640        45.67950         2.14739
C         68.91209        46.61159         1.77968
C         69.90099        48.51351         2.88896
C         68.68943        47.86923         2.23628
C         69.82413        50.05152         2.78312
C         68.57430        50.69580         2.27678
C         69.75330        52.88254         2.09916
C         68.57129        52.03904         1.95960
C         69.65823        54.27302         1.97899
C         68.37326        54.99783         1.70196
C         69.65343        57.14174         1.37599
C         68.61073        56.22681         0.78548
C         69.58553        58.53897         1.15179
C         68.41226        59.13314         0.52229
C         69.40400        61.46376         1.00856
C         68.34419        60.57473         0.39464
C         69.55305        62.80916         0.32011
C         68.42732        63.39751        -0.26864
C         69.70997        65.50588        -0.64267
C         68.44076        64.76510        -0.71946
C         69.64534        67.05924        -0.75499
C         68.32380        67.66347        -0.95936
C         69.29913        69.88175        -0.34681
C         68.17362        69.06383        -0.81530
C         69.16917        71.28020        -0.21808
C         71.96200        33.06884        -4.67454
C         70.72174        32.35049        -4.87658
C         71.97899        34.41246        -4.52556
C         70.73463        35.21417        -4.47259
C         72.01023        37.03049        -3.12625
C         70.73507        36.55260        -3.72556
C         72.11059        37.95210        -2.15341
C         70.91589        38.59863        -1.55721
C         72.21906        40.26203        -0.16805
C         71.02185        39.32965        -0.21368
C         72.23576        41.52906         0.30648
C         71.06403        42.22537         0.81340
C         72.24067        44.40657         1.05772
C         71.08383        43.53393         1.28068
C         72.35287        45.70940         1.41504
C         71.35855        46.38224         2.32979
C         72.33821        48.70406         2.21260
C         71.19197        47.90855         2.28279
C         72.34725        50.08167         2.40816
C         71.11197        50.83742         2.62824
C         72.20288        53.08723         2.19322
C         71.03292        52.27099         2.29050
C         72.11989        54.45014         2.21244
C         70.79813        55.11818         2.46589
C         71.78305        57.40284         2.51709
C         70.74343        56.57522         2.05668
C         71.77369        58.75854         2.23728
C         70.68914        59.34970         1.55401
C         71.87786        61.50523         1.31063
C         70.71306        60.76387         1.25323
C         71.90338        62.88190         0.99765
C         70.77988        63.53984         0.48687
C         71.92670        65.75696         0.37711
C         70.84897        64.93387         0.08005
C         71.86659        67.16838         0.26968
C         70.72341        67.83900        -0.13944
C         71.58745        70.09553         0.48598
C         70.53929        69.27704         0.00800
C         71.43254        71.47085         0.60445
C         70.21673        72.06701         0.24864
O         54.02284        45.88683         3.56927
O         68.36127        37.48050        -3.96978
O         42.94695        48.32111         2.80145
O         69.66557        40.26407         1.60279
O         42.29742        54.35314         1.64405
O         70.78276        36.49121        -5.17569
O         62.82030        44.36021        -0.04581
O         41.51471        50.98536         2.48085
O         68.04901        37.23313        -0.01968
O         44.43848        52.44214        -0.47050
O         58.87901        42.32106        -0.43214
O         63.76887        59.27983        -2.51470
O         57.21596        40.39611         2.07006
O         70.05849        39.31145        -2.48870
O         69.83913        44.70300         3.21556
O         70.40801        50.65057         3.97942
O         65.55750        51.71184        -0.11692
O         68.12841        46.13887         0.72547
O         61.04015        38.15748         1.01578
O         49.71308        49.63252         3.37347
O         65.97171        60.72699        -2.18385
O         51.44038        45.81524         3.24839
O         62.80832        45.74529         3.24862
O         70.07048        66.21052        -1.86585
O         65.26549        42.58596        -0.62601
O         68.48239        35.17727        -5.50455
O         66.18060        46.81600         3.27980
O         48.38001        55.36765         1.86808
O         67.87058        53.23819        -0.02453
O         68.03741        42.49830        -0.64494
O         55.02934        50.46339         3.87628
H         54.13156        50.37881         4.27978
O         57.31526        44.63820        -0.17910
H         57.87705        43.93447        -0.58128
O         68.43506        42.64611         2.94432
H         68.72006        43.25538         3.66332
O         65.57435        56.41093        -2.00984
H         65.29408        57.14789        -2.59657
O         58.65033        55.43691         2.22263
H         57.79884        55.90850         2.34611
O         64.38910        62.38697         0.60792
H         64.26265        63.29515         0.95544
O         57.49843        48.81280         3.98799
H         57.27423        47.92414         4.36276
O         67.70246        35.10030        -1.25547
H         67.96726        35.47727        -0.38064
O         45.95700        56.10756         1.98814
H         46.83281        56.34240         2.37687
O         71.82933        46.13877         3.67795
H         71.16821        46.55379         4.28237
O         41.82010        52.05230        -1.69228
H         41.60349        52.13152        -2.64422
O         58.23622        43.29162         3.10943
H         59.03700        42.84732         3.45633
O         65.93992        51.29275         3.46181
H         65.91473        50.56956         4.12370
O         67.82280        55.45389         2.96348
H         68.57758        55.64811         3.56674
O         71.23699        38.30733         0.78516
H         70.94408        38.69039         1.64434
O         49.34666        47.34013        -0.31040
H         48.67565        47.84173        -0.81869
O         52.33981        50.44484         3.98226
H         51.49445        50.05698         4.30972
O         65.50371        66.34185        -3.79767
H         64.90348        65.69575        -4.22655
O         40.08159        53.16812         1.29990
H         40.53625        53.79338         1.91371
O         63.36290        55.37802        -1.90273
H         64.24057        55.22515        -2.33193
O         38.95843        50.45197         1.96817
H         39.55073        50.55364         2.74735
O         68.88870        61.78844         2.36029
H         69.58271        62.31324         2.81365
O         52.77127        41.59703         2.25748
H         53.35821        41.77021         3.02397
O         70.61455        55.16534         3.95051
H         70.73396        54.24836         4.28316
O         69.17985        55.74838        -0.46075
H         68.59366        55.04845        -0.82555
O         56.43906        46.32678         3.95337
H         55.56972        46.26172         4.42431
O         69.93109        48.15777         4.29531
H         70.30583        48.94381         4.76371
O         52.80141        57.05637        -3.30847
H         52.88440        57.75927        -3.98828
O         49.00531        45.40366         2.74524
H         49.70058        45.07901         3.36606
O         65.73312        42.65402         2.94694
H         65.91504        43.27090         3.68603
H         37.45141        49.33568        -0.00307
H         36.13277        49.92085        -2.02494
H         39.07809        52.88895        -3.08246
H         36.98085        51.67331        -3.60139
H         39.18605        48.17131         0.39700
H         39.73682        54.42764        -1.85092
H         41.18053        47.04654         1.08537
H         41.22574        56.07262        -0.85745
H         44.99863        45.08055         0.52101
H         42.87205        46.11353         1.08762
H         45.17080        58.15588        -1.20921
H         43.02551        57.10520        -0.76066
H         46.65987        44.46162        -0.39822
H         46.82995        58.84939        -1.69723
H         48.77195        43.29259        -0.56340
H         48.94493        59.67118        -2.50720
H         52.54289        41.16565        -0.71866
H         50.59772        42.61736        -0.98995
H         52.72210        61.38408        -3.50307
H         50.58484        60.30423        -3.17074
H         53.75115        39.71959         0.22572
H         54.21873        62.50410        -3.17461
H         55.79465        38.47950        -0.20916
H         56.26598        63.80152        -3.12717
H         59.54014        36.60098        -1.49112
H         57.50759        37.65029        -0.70591
H         59.92300        66.10765        -2.93909
H         57.86215        64.84170        -2.98128
H         61.23566        35.80845        -2.05816
H         61.55275        67.09984        -2.83856
H         63.29785        34.84075        -2.89713
H         63.63154        68.30833        -2.95528
H         66.88450        33.24444        -4.57360
H         64.91249        33.94155        -3.37533
H         66.76020        70.71181        -1.04388
H         64.96416        69.34428        -1.95674
H         68.61893        32.45234        -5.16421
H         68.22711        71.77423        -0.49010
H         72.90530        32.50631        -4.70583
H         70.76428        31.26675        -5.05182
H         72.94186        34.93752        -4.47035
H         72.93814        36.63291        -3.56011
H         73.10552        38.23957        -1.78460
H         73.17983        39.82076        -0.47436
H         73.20378        42.05036         0.33525
H         73.06820        43.97961         0.47122
H         73.26746        46.25405         1.13339
H         73.29495        48.22037         1.96144
H         73.28957        50.62797         2.26974
H         73.19029        52.60902         2.12219
H         73.03378        55.05831         2.15706
H         72.60795        56.97089         3.09979
H         72.60355        59.38156         2.59591
H         72.83218        61.02184         1.56150
H         72.86109        63.41132         1.08282
H         72.82563        65.33279         0.84561
H         72.72728        67.73252         0.65411
H         72.55145        69.64707         0.76093
H         72.26344        72.08785         0.97328
H         70.08809        73.15450         0.33737
