         661
 CSIRO Nanostructure Databank - Neutral Graphene Oxide Data Set
C          6.11714        31.68615         1.36854
C          6.12342        33.04885         1.46724
C          8.41238        27.42434         0.31466
C          8.37623        28.83922         0.22785
C          7.22404        29.54775         0.68820
C          8.27741        31.66659         0.15959
C          7.20263        30.94042         0.75734
C          8.22232        33.13793         0.13818
C          7.19509        33.85323         0.92576
C          8.44493        35.99604         0.69237
C          7.27372        35.22504         1.06427
C          8.49544        37.38999         0.79231
C         10.85424        23.12193         0.20322
C         10.84483        24.53787         0.09755
C          9.65012        25.27246         0.17419
C         10.80594        27.44443        -0.11554
C          9.60022        26.70208         0.10228
C         10.77563        28.83052        -0.31306
C          9.53299        29.56313        -0.22872
C         10.42990        31.82990        -0.95099
C          9.37975        30.99765        -0.40291
C         10.69843        33.12394        -0.56084
C          9.52869        33.89990        -0.13406
C         10.87552        35.93504         0.24959
C          9.64508        35.29141         0.32017
C         10.91333        37.37014         0.28844
C          9.69392        38.10947         0.50622
C         10.91855        40.22895         0.13608
C          9.73757        39.52270         0.45504
C         10.95808        41.65329         0.07929
C         13.22271        18.89052         0.71264
C         13.21143        20.25588         0.65309
C         12.02382        20.99396         0.34732
C         13.33761        23.06441        -0.26218
C         12.04835        22.37809         0.17150
C         13.33602        24.55079         0.06653
C         12.11962        25.22815         0.00524
C         13.40323        27.40223         0.00465
C         12.08881        26.68978        -0.18825
C         13.37483        28.86616         0.24967
C         12.08640        29.54570        -0.17945
C         13.44980        31.59455        -0.62767
C         12.35067        30.80827        -0.83047
C         13.36045        33.06187        -1.01682
C         12.07829        33.69425        -0.37650
C         13.41622        35.85474         0.05016
C         12.11775        35.11907         0.11130
C         13.38959        37.34927        -0.02593
C         12.10505        38.07736         0.02244
C         13.35314        40.16416        -0.42954
C         12.13890        39.48458        -0.08389
C         13.27714        41.58780        -0.79987
C         12.09484        42.35734        -0.34173
C         13.33703        44.49023        -0.63878
C         12.18780        43.76386        -0.26905
C         13.38341        45.87675        -0.45030
C         15.62415        14.53962         0.97124
C         15.62062        15.93546         0.99762
C         14.44477        16.69173         0.92485
C         15.68910        18.91826         1.09169
C         14.39543        18.14970         1.28465
C         15.68960        20.27270         1.14006
C         14.40675        21.08834         1.07756
C         15.83725        23.11522         0.47017
C         14.64094        22.24889         0.07153
C         15.81882        24.49967         0.31644
C         14.59363        25.24878         0.17854
C         15.85549        27.38919         0.43872
C         14.64207        26.65723         0.26473
C         15.87808        28.89552         0.62441
C         14.64328        29.59632         0.12833
C         15.91965        31.64762        -0.36119
C         14.65815        30.94951        -0.16259
C         15.90723        33.03635        -0.63948
C         14.64897        33.78280        -0.63705
C         15.92325        35.87142        -0.24111
C         14.65127        35.12193        -0.33476
C         15.87477        37.38863        -0.35890
C         14.54743        37.99054        -0.76008
C         15.74335        40.16497        -1.12053
C         14.55317        39.49776        -0.72623
C         15.84312        41.61018        -1.06182
C         14.54070        42.31136        -1.23029
C         15.80801        44.52224        -1.12114
C         14.48831        43.83262        -1.39507
C         15.74721        46.02275        -1.36576
C         14.52326        46.66870        -0.74046
C         15.70413        48.83757        -0.64418
C         14.52104        48.03677        -0.49544
C         15.71017        50.22147        -0.54226
C         18.05620        10.57332        -0.55159
C         18.06295        11.85699         0.05281
C         16.86975        12.48069         0.40596
C         18.15239        14.51017         1.08727
C         16.86269        13.73595         1.22436
C         18.18154        15.88636         1.24138
C         16.92954        16.64877         0.99002
C         18.25610        18.84255         1.21793
C         16.95275        18.14079         0.95685
C         18.23325        20.30948         1.41646
C         16.91909        21.06483         1.53230
C         18.23890        23.12610         1.10258
C         17.03448        22.45675         0.93100
C         18.38443        24.51493         0.65333
C         17.08058        25.25728         0.29743
C         18.32713        27.42647         0.52537
C         17.07386        26.71502         0.46603
C         18.35319        28.80785         0.24828
C         17.14950        29.54980         0.10679
C         18.40894        31.54139        -0.81283
C         17.13070        30.89630        -0.29464
C         18.38467        33.04762        -0.71794
C         17.15841        33.73751        -0.71519
C         18.31927        35.89983        -0.87388
C         17.16910        35.18586        -0.64684
C         18.32330        37.37097        -0.65864
C         17.04475        38.07257        -0.92468
C         18.45823        40.40106         0.13598
C         16.89263        39.33388        -1.46415
C         18.31884        41.76399        -0.50133
C         17.01757        42.36354        -0.82019
C         18.28334        44.56866        -1.00514
C         16.97672        43.82712        -0.94818
C         18.29139        46.05643        -1.12033
C         17.00324        46.77345        -1.00373
C         18.18916        48.92791        -1.04040
C         16.96175        48.12760        -0.82741
C         18.18524        50.36234        -0.72634
C         16.92936        51.00048        -0.53089
C         18.11243        53.10234        -0.06924
C         16.90585        52.38937        -0.30229
C         18.12507        54.51127         0.09284
C         20.39606         6.51250        -2.12478
C         20.42465         7.82208        -1.57489
C         19.22941         8.55972        -1.34693
C         20.51965        10.48259        -0.49635
C         19.25096         9.85532        -0.79351
C         20.57479        11.78064         0.07312
C         19.34616        12.48724         0.37856
C         20.66595        14.43589         1.29353
C         19.37149        13.77830         0.89024
C         20.64178        15.95269         1.24575
C         19.43324        16.60392         1.36913
C         20.70030        18.75601         1.96746
C         19.34971        18.02607         1.89786
C         20.74256        20.26856         2.03897
C         19.42861        21.01156         1.99233
C         20.73540        23.16623         1.64271
C         19.42685        22.48564         1.73555
C         20.67514        24.63647         1.68692
C         19.51994        25.33891         1.11444
C         20.79230        27.45843         1.01349
C         19.54305        26.71423         0.88426
C         20.85084        28.88742         0.67070
C         19.67729        29.45310        -0.09427
C         20.71551        31.78415         0.25185
C         19.59622        30.94700        -0.11831
C         20.81333        33.15413        -0.28970
C         19.61531        33.75586        -0.72288
C         20.88729        35.95958        -0.93914
C         19.60013        35.19708        -1.04540
C         20.88635        37.43366        -0.72029
C         19.60253        38.11844        -0.42319
C         20.80156        40.27673        -0.57112
C         19.64639        39.60528        -0.34391
C         20.80051        41.74590        -0.36036
C         19.51228        42.45628        -0.55162
C         20.83488        44.63722        -0.86488
C         19.54571        43.95627        -0.42333
C         20.83880        46.07431        -0.98079
C         19.54109        46.79601        -0.65659
C         20.75634        49.02978        -1.15462
C         19.49342        48.22276        -1.16175
C         20.69800        50.40036        -0.62988
C         19.41422        51.04321        -0.46268
C         20.53238        53.01461         0.64014
C         19.34583        52.38765        -0.02570
C         20.55494        54.52690         0.58590
C         19.32920        55.23843         0.33786
C         20.46433        57.43505         0.71062
C         19.32577        56.64198         0.25851
C         20.49956        58.91237         0.35316
C         22.73751         3.89033        -3.44837
C         21.55362         4.55195        -3.12587
C         22.85563         6.35894        -2.12608
C         21.59155         5.80514        -2.45305
C         22.92884         7.59040        -1.27002
C         21.67711         8.43471        -1.27292
C         22.97383        10.44283        -0.63630
C         21.72365         9.77076        -0.80116
C         23.02177        11.74220        -0.13298
C         21.83701        12.41238         0.28837
C         23.08715        14.50005         0.72918
C         21.90314        13.79450         0.71301
C         23.10297        16.00705         0.62461
C         21.89280        16.69596         1.23656
C         23.19025        18.81301         1.55141
C         21.91978        18.03935         1.52335
C         23.18750        20.31137         1.45934
C         21.98520        21.02031         1.70892
C         23.20603        23.20963         1.61921
C         21.94481        22.46910         1.67650
C         23.23068        24.58580         1.59740
C         21.99980        25.39504         1.72541
C         23.23539        27.52622         1.07909
C         21.96626        26.80484         1.32206
C         23.24595        28.99912         1.39697
C         21.98630        29.62880         0.85535
C         23.27999        31.82120         0.56567
C         22.00621        31.10498         0.73407
C         23.24895        33.19065         0.23280
C         22.05420        33.85544        -0.19761
C         23.31888        35.96500        -0.64243
C         22.12992        35.24672        -0.57156
C         23.30432        37.36512        -1.23684
C         22.04324        38.11802        -0.88194
C         23.32757        40.32028        -0.88833
C         22.02416        39.60431        -1.15135
C         23.34125        41.71073        -0.79720
C         22.09182        42.48532        -0.52980
C         23.29263        44.58864        -1.06911
C         22.05472        43.93379        -0.86370
C         23.31600        46.06281        -1.42462
C         22.01086        46.78530        -1.17760
C         23.36521        49.05784        -1.11671
C         22.05062        48.27357        -1.29473
C         23.20654        50.37888        -0.35552
C         21.90837        51.07711        -0.27410
C         23.03475        53.08057         0.70960
C         21.83574        52.37102         0.25024
C         22.99665        54.54575         0.83685
C         21.77199        55.22156         0.80762
C         23.03003        57.44867         0.98081
C         21.75634        56.69419         1.00892
C         23.05418        58.82107         0.80592
C         21.84611        59.58064         0.53700
C         23.15872        61.64586         0.50203
C         21.91704        60.94651         0.39944
C         23.97964         4.44478        -3.13642
C         25.34066         6.29229        -2.19477
C         24.06570         5.70018        -2.47479
C         25.46493         7.61965        -1.72364
C         24.18715         8.37803        -1.55964
C         25.52866        10.40617        -0.77572
C         24.21182         9.79766        -1.13388
C         25.52162        11.92112        -0.75522
C         24.34014        12.38258         0.08124
C         25.64685        14.54676         0.44845
C         24.37168        13.80657         0.55875
C         25.63685        15.94636         0.78723
C         24.43811        16.60883         0.99435
C         25.64244        18.78619         0.76781
C         24.45529        18.05785         1.30404
C         25.61505        20.31063         0.76825
C         24.40604        20.98835         1.26488
C         25.65102        23.14951         0.98652
C         24.51694        22.42741         1.71490
C         25.76725        24.61309         1.23107
C         24.50385        25.34351         1.48035
C         25.79208        27.51494         1.08025
C         24.50501        26.77583         1.06434
C         25.74700        28.95387         0.98144
C         24.52908        29.68675         0.96369
C         25.77119        31.75287         0.51089
C         24.52143        31.08222         0.70389
C         25.81130        33.23237         0.45606
C         24.48472        33.99726         0.32826
C         25.77942        36.01359        -0.39612
C         24.55645        35.35765        -0.25179
C         25.83930        37.37199        -1.08008
C         24.55991        38.15471        -0.94706
C         25.81593        40.26321        -0.90680
C         24.56678        39.55543        -0.93137
C         25.84302        41.73270        -1.21237
C         24.54942        42.46059        -0.92067
C         25.83538        44.58496        -1.20482
C         24.51315        43.86305        -1.01329
C         25.78014        46.02042        -0.69839
C         24.48105        46.76250        -0.74074
C         25.68651        48.84011        -0.15955
C         24.51427        48.22404        -0.60577
C         25.63130        50.23554         0.40848
C         24.34049        50.96986         0.12272
C         25.62785        53.09077         0.69126
C         24.33839        52.34967         0.65569
C         25.58332        54.56703         0.78732
C         24.27604        55.28897         0.84324
C         25.57326        57.42338         1.13989
C         24.27006        56.69577         1.40594
C         25.52491        58.84539         1.02570
C         24.32719        59.53625         0.87206
C         24.32495        60.96463         0.72273
C         26.68498         8.27167        -1.56942
C         28.03549        10.47796        -1.27774
C         26.78596         9.64780        -1.03421
C         28.03902        11.83577        -0.58774
C         26.83378        12.51554        -0.30039
C         28.14483        14.45903         0.65083
C         26.83558        13.84295         0.20702
C         28.13695        15.96023         0.56563
C         26.92189        16.66844         0.77259
C         28.13753        18.82030         0.33552
C         26.91406        18.06796         0.75935
C         28.15600        20.29032         0.70870
C         26.93638        20.98248         0.73672
C         28.18207        23.21191         0.60068
C         26.91060        22.44380         0.60900
C         28.19234        24.56811         0.72789
C         26.90754        25.34667         0.54471
C         28.23518        27.49083         0.84090
C         26.97346        26.80867         0.92363
C         28.22126        28.90380         0.73189
C         26.98350        29.62352         0.73550
C         28.23509        31.68711         0.16453
C         26.96297        31.02375         0.49308
C         28.26190        33.17003        -0.07831
C         27.02851        33.94279         0.07151
C         28.28214        36.02027        -0.38038
C         27.03029        35.32245        -0.19749
C         28.28929        37.45367        -0.53285
C         27.07371        38.15238        -0.71463
C         28.28387        40.29731        -0.58569
C         27.05369        39.57043        -0.75642
C         28.24378        41.73732        -0.43891
C         27.05578        42.42268        -0.64611
C         28.31446        44.59650        -0.56883
C         26.94535        43.89752        -0.35958
C         28.26816        46.07490        -0.27338
C         27.06894        46.83070        -0.78213
C         28.15772        48.89756         0.16841
C         26.93988        48.18923        -0.14712
C         28.14521        50.30017         0.32065
C         26.86979        51.05045         0.03363
C         28.07222        53.08853         1.16902
C         26.81717        52.44150         0.62746
C         28.02646        54.59850         1.12763
C         26.84932        55.29026         1.08365
C         26.77119        56.73509         1.11849
C         29.27492        12.49015        -0.42803
C         30.56893        14.53877        -0.00665
C         29.36683        13.82808         0.02082
C         30.63828        15.93407         0.27643
C         29.37838        16.65794         0.46646
C         30.67240        18.73256         0.77784
C         29.40054        18.04753         0.56542
C         30.66368        20.28269         0.81129
C         29.38667        20.98091         0.66917
C         30.72298        23.09149         0.67371
C         29.43644        22.43134         0.26671
C         30.73034        24.50126         1.08776
C         29.43902        25.30344         1.05597
C         30.70140        27.47793         0.85068
C         29.47273        26.77721         0.90445
C         30.71366        28.88073         0.66746
C         29.47383        29.61311         0.64980
C         30.72859        31.78217         0.73700
C         29.47930        30.99780         0.49253
C         30.72240        33.18630         0.16451
C         29.55839        33.87977         0.00353
C         30.71856        36.03245        -0.08203
C         29.52820        35.32984        -0.19221
C         30.77635        37.46296        -0.34135
C         29.51347        38.19040        -0.47910
C         30.75585        40.33012        -0.20842
C         29.51442        39.60172        -0.46038
C         30.69466        41.78528        -0.09917
C         29.47585        42.43685        -0.12045
C         30.71476        44.65440         0.11720
C         29.40978        43.89878         0.23459
C         30.68032        46.02335         0.23899
C         29.41672        46.75148         0.11137
C         30.63907        48.92150         0.34355
C         29.40062        48.18694         0.22811
C         30.59727        50.34249         0.40577
C         29.36630        51.05165         0.46019
C         29.31972        52.45050         0.62727
C         31.84686        16.64102         0.19284
C         33.10442        18.79183         0.29378
C         31.92881        18.04883         0.40501
C         33.13629        20.22926         0.36212
C         31.92336        20.96296         0.50829
C         33.19423        23.10050         0.46902
C         31.92485        22.38948         0.54319
C         33.22215        24.47604         0.57050
C         32.04210        25.22336         1.04643
C         33.20534        27.43977         0.52263
C         32.00491        26.76733         0.96251
C         33.17425        28.84249         0.02609
C         31.94502        29.61536         0.44389
C         33.22751        31.73955         0.50970
C         31.95778        30.98655         0.40946
C         33.27428        33.19736         0.35275
C         32.03268        33.88984        -0.13768
C         33.18367        36.06655         0.75907
C         31.95810        35.32737         0.32047
C         33.16269        37.60205         0.82174
C         32.04300        38.22164        -0.00755
C         33.18510        40.44403         0.49665
C         31.93697        39.68067         0.08389
C         33.20003        41.74923        -0.30488
C         31.93569        42.53084        -0.04020
C         33.21252        44.64375        -0.10093
C         31.95763        43.91505         0.02030
C         33.13979        46.14804        -0.27737
C         31.97287        46.75718         0.53147
C         31.86427        48.24346         0.38288
C         34.35574        20.94128         0.20331
C         35.66163        23.04820         0.15824
C         34.43022        22.35564         0.24710
C         35.75288        24.47444         0.18715
C         34.45249        25.20247         0.21058
C         35.72784        27.41179         0.34749
C         34.42848        26.68845         0.21468
C         35.68579        28.87752         0.14510
C         34.50675        29.54065         0.24466
C         35.76459        31.75331         0.26513
C         34.52516        30.99594         0.48595
C         35.73914        33.16369         0.40582
C         34.46665        33.86535         0.49886
C         35.73821        36.05418         0.38988
C         34.52246        35.32495         0.90651
C         35.73641        37.51936         0.50953
C         34.47485        38.28446         0.46836
C         35.69850        40.37485        -0.01943
C         34.47234        39.64633         0.30359
C         35.65348        41.82895        -0.10996
C         34.47677        42.53055        -0.12068
C         34.40824        43.97330        -0.14902
C         36.94391        25.18592         0.08932
C         38.24511        27.47079         0.02511
C         37.01879        26.65865         0.27218
C         38.22667        28.84010        -0.09129
C         36.92941        29.58435        -0.33154
C         38.15966        31.77045        -0.12284
C         36.95655        31.05672         0.00648
C         38.14073        33.19410        -0.07444
C         36.93788        33.89895         0.18644
C         38.13075        36.06996        -0.23294
C         36.91397        35.36010         0.15971
C         38.13239        37.44833        -0.38532
C         37.02481        38.27427         0.09309
C         36.87601        39.69429        -0.24682
C         39.42290        29.63995        -0.22039
C         40.60322        31.80367        -0.49261
C         39.40132        31.02750        -0.29404
C         40.57548        33.16725        -0.55707
C         39.35759        33.92498        -0.36749
C         39.32300        35.30302        -0.49006
O         33.90195        31.32978         1.78926
O         18.75398        48.51066        -2.37138
O         12.89483        27.10992        -1.35737
O         11.39171        31.20565        -1.76449
O         32.24479        35.51063         1.75153
O         24.58237        12.64543         1.48126
O         24.96145        55.15008        -0.44885
O         18.86119        37.57899         0.72200
O         12.21244        33.98567         1.05385
O         36.41304        27.06220         1.59924
O         29.99054        24.78877         2.32524
O         34.27075        25.96474        -1.09219
O         32.26116        26.02668         2.23344
O         25.36156        19.51232        -0.48226
O         13.64656        36.68989         1.24527
O         13.64909        41.70794        -2.23427
O         21.09748        31.72942         1.70155
O         18.61312        19.73987         0.12098
O          8.46033        33.76599        -1.15690
O         18.01270        24.78078        -0.73497
O         17.72900        40.06519         1.04937
O         18.47925        45.21763        -2.30984
O         23.79462        27.07274        -0.20318
O         20.35077        35.59388        -2.26549
O         36.68668        38.01235         1.50533
O         21.38712        48.82360        -2.49374
O         30.73670        19.45890         2.03766
O         21.21803        25.16692         2.94311
O         19.19259        21.91166         3.09449
O         16.06036        36.76395         0.92087
O         12.48691        29.45246         1.24750
O         23.63804        52.45558         1.95614
O         24.06883         9.43168        -2.56484
O         20.86115        57.13743         2.09660
O         25.46079        25.05868         2.58182
O         24.07869        18.38946         2.68044
O         25.14992        33.85953         1.61838
O         31.86236        37.72338        -1.36183
O         28.23166        32.23845        -1.23843
O         17.03552        17.38751        -0.30327
O         24.98841        46.13705         0.50182
O         26.23006         9.78532         0.33572
O         21.54964        42.20626         0.83391
O         20.88200        19.43625         3.25550
O         25.85600        22.83521        -0.42249
O         18.86294        17.85806         3.25879
H         19.42165        18.43443         3.83711
O         24.16379        56.52224         2.85318
H         23.94054        57.39052         3.24970
O         16.72848        21.25362         2.96423
H         15.84988        21.69148         3.08115
O         34.75032        35.26988         2.35382
H         33.93799        34.87662         2.74759
O         23.08920         7.13014         0.11953
H         22.33016         6.54594         0.32976
O         36.78990        29.53535        -1.80218
H         35.99901        30.06086        -2.04984
O         23.60151        46.19236        -2.85411
H         22.79562        45.93771        -3.35089
O         14.21356        44.09217        -2.79723
H         13.61520        43.36990        -3.10104
O         32.16635        33.89207        -1.59314
H         31.32111        34.20784        -1.97929
O         15.07731        21.55692        -1.11423
H         14.90186        22.13760        -1.88792
O         14.17541        18.15767         2.75915
H         14.89284        17.62819         3.17029
O         32.31179        46.51021         1.93473
H         31.59821        46.89312         2.48732
O         28.70850        44.46145        -1.95386
H         28.02856        44.93481        -2.49805
O         32.95729        46.43507        -1.67099
H         32.10567        46.04179        -1.95590
O         20.07800        59.06791        -1.01544
H         20.83043        58.85028        -1.60287
O         13.22759        33.19843        -2.44826
H         12.54961        32.54756        -2.74259
O         33.05982        28.75305        -1.45016
H         33.50645        27.92433        -1.73913
O         28.23641        14.14529         2.08772
H         28.02515        13.19346         2.19680
O         26.63396        25.36434        -0.88208
H         26.38953        24.44275        -1.14872
O         25.99271        37.08408        -2.52169
H         25.08304        36.90430        -2.87514
O         26.00539        41.83612        -2.71099
H         26.78102        41.28412        -2.95469
O         33.08548        40.77507         1.89956
H         33.03987        39.91619         2.38655
O         28.06840        52.74451         2.61295
H         27.14721        52.83197         2.94033
O         23.20294        29.08256         2.85027
H         23.00328        30.01004         3.09950
O         33.16095        41.35056        -1.70726
H         33.17348        42.16407        -2.25341
O         15.90788        29.09553         2.08227
H         15.79895        30.05456         2.25738
O         20.38157        52.67494         2.08391
H         21.23355        52.89226         2.52339
O         26.50757        44.03970         1.00604
H         27.27664        43.85882         1.59834
O         22.95573        16.28435        -0.81953
H         23.69412        15.84348        -1.29185
O         25.25806        12.38152        -2.10777
H         25.90638        11.95097        -2.70723
O         29.45901        22.42419        -1.22017
H         28.68454        21.90338        -1.52594
O         21.86547        39.68179        -2.62919
H         20.99134        39.29482        -2.85540
O         26.83726        51.22440        -1.41048
H         27.61972        51.75162        -1.67617
O         15.64002        46.22291        -2.80601
H         16.45619        45.84875        -3.20614
O         25.69282        50.10132         1.85394
H         24.88095        49.64737         2.16270
O         23.81238        49.45394        -2.44588
H         22.99800        49.51642        -3.00381
O         16.81060        13.32201         2.65258
H         17.72545        13.10153         2.93258
O         26.16123        44.58269        -2.60488
H         26.09348        43.64157        -2.91854
O         24.88676        22.40083         3.11936
H         24.99392        23.33739         3.41467
O         18.47959        31.22963        -2.24678
H         18.92073        30.34836        -2.33227
O         23.28029        37.20312        -2.70444
H         22.99002        38.07413        -3.07218
O         27.31642        47.05122        -2.21744
H         26.48605        47.38734        -2.62068
O         19.47614        46.91142         0.79008
H         19.50720        45.99083         1.16344
O         29.06938        43.96097         1.66060
H         29.78391        43.50707         2.15644
O         28.08660        10.70581        -2.70037
H         28.87770        11.24934        -2.89603
O         17.86716        39.85179        -2.27841
H         17.58025        40.72827        -2.60995
O         19.94292        29.03430        -1.50733
H         19.91796        28.05228        -1.53189
O         14.39276        37.61815        -2.17055
H         13.74796        38.23014        -2.58512
O         30.78573        32.00307         2.20489
H         31.72453        31.93512         2.48861
O         32.87560        37.97633         2.19986
H         33.45177        37.43041         2.77860
O         20.77110        14.13290         2.73867
H         21.62662        14.49183         3.05979
O         28.01339        18.89010        -1.15389
H         27.08032        19.17462        -1.32935
O         13.25521        23.07392        -1.72725
H         12.49591        23.64116        -1.98042
O         19.47655        44.17707         1.03488
H         20.20514        43.63409         1.42728
O         14.10845        21.66424         2.37591
H         13.75714        20.94408         2.94317
H          5.27975        31.11480         1.79554
H          5.29531        33.56246         1.97826
H          7.49947        26.88679         0.61144
H          6.36980        28.96963         1.07123
H          6.45145        35.75920         1.56549
H          7.58705        37.95059         1.05907
H          9.90592        22.59736         0.39667
H          8.70441        24.72558         0.30555
H          8.81242        40.09036         0.63670
H         10.06482        42.22026         0.38273
H         12.32472        18.32120         0.42614
H         11.05406        20.47156         0.37187
H         11.33951        44.31851         0.16301
H         12.49884        46.37837        -0.02385
H         14.66695        13.99985         0.90363
H         13.48207        16.15904         0.86708
H         13.60076        48.51637        -0.12605
H         14.75874        50.75558        -0.39848
H         17.09052        10.10592        -0.79637
H         15.91301        11.98012         0.19296
H         15.94455        52.92040        -0.24502
H         17.18429        55.07010        -0.01874
H         19.42489         6.05834        -2.37005
H         18.26179         8.09715        -1.59206
H         18.44511        57.16440        -0.14289
H         19.73569        59.44638         0.97726
H         22.69251         2.92041        -3.96357
H         20.58221         4.10888        -3.38745
H         23.16585        62.73859         0.38868
H         20.99943        61.51706         0.19681
H         24.90356         3.91681        -3.41242
H         26.24977         5.71346        -2.41775
H         26.47280        59.40434         0.98802
H         25.28320        61.50032         0.78443
H         27.61718         7.74184        -1.81922
H         28.95356         9.90081        -0.96752
H         28.96787        55.14203         1.30532
H         27.71348        57.30369         1.07007
H         30.19375        11.97591        -0.75353
H         31.48715        14.02334        -0.33046
H         31.54131        50.90095         0.48465
H         30.26640        53.00812         0.69302
H         32.77099        16.08863        -0.03608
H         34.04737        18.26459         0.08371
H         34.10126        46.62297         0.03601
H         32.79128        48.83056         0.47372
H         35.28461        20.36868         0.05839
H         36.58989        22.46224         0.07691
H         36.61345        42.36862        -0.11476
H         35.35050        44.54088        -0.20469
H         37.88699        24.63407        -0.04682
H         39.21557        26.94947         0.06065
H         39.00655        37.94452        -0.83433
H         37.75442        40.23569        -0.63061
H         40.39449        29.12180        -0.25157
H         41.55517        31.26801        -0.62428
H         41.50525        33.72478        -0.74509
H         40.24358        35.84695        -0.75119
