         324
 CSIRO Nanostructure Databank - Neutral Graphene Oxide Data Set
C          2.62217         2.05062         2.41968
C          2.12256         3.35856         2.07390
C          3.32447         1.30336         1.53891
C          2.48551         3.98988         0.90770
C          1.42578         6.27442         1.41730
C          1.41065         7.69007         1.13643
C          2.04324         5.34480         0.60902
C          2.39319         8.43125         0.49548
C          1.17988        10.66425         0.71703
C          1.21652        12.05606         0.77696
C          2.35202         9.90760         0.49309
C          2.38389        12.79835         0.47838
C          1.23170        15.02805         0.54099
C          1.27344        16.45951         0.59182
C          2.39824        14.27654         0.54160
C          2.42983        17.15488         0.31899
C          2.50128        18.59576         0.38491
C          3.59408         1.79790         0.13471
C          3.51260         3.32421         0.03474
C          4.88497         1.21652        -0.37575
C          4.74639         4.12054        -0.44558
C          3.69370         6.39825        -0.31338
C          3.64853         7.79887         0.05527
C          4.80937         5.59760        -0.23259
C          4.84378         8.47552         0.17834
C          3.54029        10.64203         0.25993
C          3.54128        12.04868         0.13907
C          4.84379         9.93922         0.36465
C          4.76735        12.65834        -0.49775
C          3.65201        15.01957         0.50707
C          3.61316        16.34867        -0.21469
C          4.86624        14.52767         0.96875
C          4.93684        17.12835        -0.17543
C          3.65152        19.30338         0.22791
C          4.94973        18.64480        -0.03371
C          6.03084         1.95093        -0.68829
C          6.02549         3.38593        -0.62696
C          7.27652         1.27607        -0.89965
C          7.27665         4.04766        -0.59011
C          6.12478         6.25802        -0.14037
C          6.13661         7.77822         0.02964
C          7.32195         5.37895        -0.04488
C          7.35415         8.57401         0.37178
C          6.12532        10.68507         0.17025
C          6.11981        12.14575        -0.07180
C          7.39953         9.95018         0.09497
C          7.29837        12.82032         0.10478
C          6.12805        15.08457         0.52882
C          6.19312        16.42215         0.14921
C          7.36124        14.25317         0.50806
C          7.44119        17.13689         0.11999
C          6.21642        19.28422         0.30857
C          7.43314        18.59051         0.19682
C          8.51177         1.93661        -1.01306
C          8.52132         3.38153        -0.85209
C          9.70809         1.12259        -1.00184
C          9.73467         4.17084        -0.78428
C          8.53025         5.81913         0.45835
C          8.56076         7.99564         0.76229
C          9.79261         5.40196        -0.05250
C          9.81285         8.55071         0.49949
C          8.62162        10.64029         0.08083
C          8.59755        12.10355        -0.28664
C          9.84133         9.92831         0.16260
C          9.89902        12.83004        -0.01650
C          8.67229        14.97270         0.37488
C          8.66501        16.44378         0.20817
C          9.88698        14.21964         0.00731
C          9.90475        17.13661         0.16198
C          8.67843        19.26795         0.29244
C          9.90913        18.57939         0.22762
C         10.95945         1.60224        -1.41381
C         10.94461         3.74328        -1.36313
C         12.26319         1.24222        -1.04467
C         12.18820         4.32115        -1.06442
C         10.97490         6.22525        -0.03282
C         11.02149         7.66318         0.48043
C         12.16223         5.66118        -0.54869
C         12.29392         8.44928         0.34945
C         11.11049        10.64673         0.11616
C         11.12752        12.09060         0.01648
C         12.27998         9.93943         0.28853
C         12.39170        12.75788         0.12268
C         11.11561        14.97934        -0.20808
C         11.13840        16.43306         0.04871
C         12.43572        14.20615        -0.15421
C         12.36956        17.11005         0.08453
C         11.15296        19.25400         0.24164
C         12.37766        18.55226         0.19166
C         13.41920         2.09440        -1.19617
C         13.41758         3.55689        -1.23147
C         14.66322         1.44152        -1.12661
C         14.65266         4.24215        -1.16370
C         13.38187         6.44866        -0.82077
C         13.46071         7.87616        -0.38647
C         14.67156         5.72333        -1.14610
C         14.78483         8.57090        -0.29489
C         13.55498        10.62357         0.58988
C         13.56610        12.09381         0.49521
C         14.86076         9.85402         0.49962
C         14.83397        12.82801         0.63012
C         13.66155        14.96763         0.10862
C         13.62493        16.39158         0.08235
C         14.86517        14.27145         0.30913
C         14.85066        17.09733         0.14935
C         13.61553        19.23475         0.22123
C         14.84674        18.54199         0.17573
C         15.90014         2.12746        -1.16176
C         15.89693         3.56259        -1.18141
C         17.12758         1.43433        -1.13593
C         17.13361         4.28109        -1.26084
C         15.96675         6.44212        -0.97855
C         16.01863         7.81913        -0.61206
C         17.14751         5.70918        -1.21967
C         17.26488         8.51099        -0.53549
C         16.23656        10.53029         0.66716
C         16.19511        12.06859         0.61956
C         17.34462         9.91689        -0.16030
C         17.38087        12.80583         0.16591
C         16.10402        14.95756         0.24855
C         16.08738        16.38265         0.13599
C         17.34983        14.23409         0.12305
C         17.31189        17.09448        -0.00133
C         16.07601        19.22947         0.15648
C         17.30253        18.53439         0.02516
C         18.35850         2.12605        -1.15504
C         18.36559         3.55865        -1.27260
C         19.57561         1.41516        -0.96325
C         19.62739         4.24747        -1.27939
C         18.39830         6.46345        -1.58747
C         18.43362         7.84006        -0.96167
C         19.69114         5.69477        -1.38761
C         19.66154         8.51396        -0.97660
C         18.53154        10.62657        -0.23253
C         18.59280        12.08366        -0.13381
C         19.78120         9.89308        -0.49261
C         19.77905        12.77274        -0.42714
C         18.52257        14.95961        -0.21657
C         18.52420        16.38064        -0.22796
C         19.72050        14.22294        -0.66253
C         19.74209        17.11086        -0.44707
C         18.52148        19.22842        -0.08401
C         19.73510        18.54182        -0.32039
C         20.80570         2.08325        -0.89825
C         20.80573         3.50352        -1.14579
C         21.98532         1.41635        -0.40708
C         22.07443         4.22244        -0.92636
C         20.88633         6.40493        -1.40502
C         20.82627         7.85363        -1.40044
C         22.16538         5.72097        -1.02356
C         21.93935         8.65958        -1.76688
C         21.10816        10.62366        -0.63183
C         21.10958        12.11668        -0.53642
C         22.16502         9.96736        -1.41692
C         22.35890        12.84978        -0.97945
C         20.97887        14.99427        -1.04310
C         20.95390        16.45362        -0.78678
C         22.30150        14.31704        -1.16857
C         22.13129        17.18450        -0.97166
C         20.94582        19.25725        -0.44408
C         22.14866        18.60360        -0.75187
C         23.23449         2.05111        -0.30918
C         23.28631         3.32123        -1.10396
C         24.35533         1.50837         0.35305
C         24.71635         4.51816         0.43043
C         23.55464         6.33406        -0.99677
C         23.81243         7.53621        -1.66208
C         24.68691         5.71389        -0.35943
C         24.89404         8.44631        -1.42302
C         23.42132        10.64818        -1.93687
C         23.54721        12.14384        -1.53645
C         24.71731         9.83130        -1.65600
C         24.70970        12.86784        -1.83257
C         23.45077        15.02233        -1.44478
C         23.33532        16.51108        -1.49536
C         24.73584        14.35925        -1.73269
C         24.59713        17.34318        -1.51455
C         23.37496        19.33913        -0.74311
C         24.59936        18.72432        -0.98316
C         25.60838         2.16961         0.57486
C         25.80499         3.57616         0.32968
C         26.74192         1.43474         0.99485
C         27.11110         4.10628         0.20800
C         26.02303         6.23604        -0.77825
C         26.17886         7.71952        -1.14559
C         27.24844         5.50245        -0.26586
C         27.44381         8.39804        -0.67753
C         25.84486        10.63900        -1.95332
C         25.85551        12.00502        -2.13725
C         27.77915         9.61660        -1.16826
C         27.98509        12.78663        -1.52910
C         25.85492        15.19619        -1.91735
C         25.86898        16.61408        -1.61041
C         27.97187        14.16765        -1.49616
C         27.02275        17.36369        -1.42618
C         25.83026        19.35291        -0.67334
C         27.05575        18.66923        -0.80622
C         27.99900         2.04946         1.16537
C         28.19473         3.40128         0.72926
C         29.08429         1.36335         1.80246
C         29.55212         4.06208         0.86083
C         28.44298         6.26415         0.21664
C         28.23822         7.74819         0.44138
C         29.45950         5.56587         1.02571
C         29.55925         8.40603         0.73262
C         28.87991        10.50304        -0.64728
C         28.80164        12.01852        -0.63679
C         29.78125         9.82444         0.33877
C         29.62726        12.75545         0.25443
C         28.85609        14.90409        -0.68179
C         28.91474        16.31104        -0.75943
C         29.68922        14.19264         0.23007
C         29.59686        17.09206         0.16740
C         28.25449        19.21498        -0.25796
C         29.39535        18.53007         0.24381
C         30.21820         2.04902         2.21299
C         30.40123         3.41856         1.92504
C         31.37762         4.19945         2.58278
C         30.45389         6.28842         1.66481
C         30.52943         7.74663         1.45022
C         31.43498         5.57608         2.43936
C         31.68416         8.50452         1.93275
C         30.55473        10.60578         1.35220
C         30.46329        12.09984         1.30076
C         31.68775         9.85557         1.94919
C         31.50074        12.90855         1.96630
C         30.57569        14.96846         1.04442
C         30.51361        16.40343         1.04631
C         31.53224        14.25799         1.85953
C         31.35018        17.20691         1.86554
C         30.30625        19.25462         1.05139
C         31.26591        18.59756         1.82536
O         22.09417        12.55844         0.47779
O         27.07300        10.03455        -2.29162
O         11.82304        14.57862        -1.43561
O         20.04613        14.56295        -2.09436
O         15.60040        12.57204         1.85781
O         29.66968        11.30010         2.29933
O         30.21618        10.01077        -1.05429
O          5.05859        17.96500        -1.36626
O          4.68517        13.33459        -1.51148
O          8.50792         6.78974         1.45214
O         24.05494         3.47938        -2.03887
O         11.93985         7.83633         1.62648
O          2.45531         5.82775        -0.64851
O         27.14174        12.37256        -2.58516
O         23.80028        17.14318        -2.73703
O         26.25672         6.64522        -2.15107
O         22.86753         8.00202        -2.59113
O          8.18545        14.49041         1.71689
O         21.91427         5.06432         0.28344
O         14.16341         9.91306         1.77191
O         20.75776         9.98382         0.63237
O         10.90186         2.71311        -2.29160
O         28.39666         5.74617        -1.14898
O          6.31154         7.17804        -1.31325
O         27.08752        14.75427        -2.41537
O          5.57823        10.44229         1.55814
O         28.25753        16.87858        -1.85135
O         13.89142         8.76326        -1.46691
O          3.64853         3.72243        -1.34816
O         13.82855         6.29376        -2.20792
O         18.29308         6.69010        -3.04723
H         17.41508         7.09320        -3.22060
O          8.50197        12.12827        -1.75982
H          9.38434        11.90592        -2.12707
O          3.31067        16.09326        -1.60893
H          3.70036        16.83467        -2.12676
O         27.43181         7.81709         1.66660
H         27.57391         8.69216         2.08639
O         23.31924        10.68524        -3.39163
H         23.26894         9.75053        -3.69729
O          2.52469         1.27364        -0.71198
H          2.58003         1.76889        -1.55920
O         30.26010         3.85727        -0.41440
H         29.76013         4.37908        -1.09030
O          4.88941        13.53668         1.90340
H          5.81030        13.31630         2.15409
O         23.88043         4.21541         1.43087
H         23.10133         4.82677         1.45435
O         16.66792        10.19979         2.01333
H         15.96434        10.53242         2.61758
H          2.38945         1.65575         3.41922
H          1.42473         3.85050         2.76665
H          3.65670         0.28945         1.80498
H          0.92788         5.94860         2.34336
H          0.61648         8.25816         1.64800
H          0.22325        10.15294         0.89624
H          0.29201        12.58703         1.04511
H          0.24799        14.53857         0.54716
H          0.34921        17.00721         0.83364
H          1.56994        19.13598         0.61830
H          4.93737         0.11731        -0.41430
H          3.64226        20.39837         0.33270
H          7.26466         0.17593        -0.91870
H          6.22167        20.35192         0.57336
H          9.63016         0.11346        -0.56971
H          8.68189        20.36437         0.38086
H         12.43106         0.25676        -0.58382
H         11.16725        20.35276         0.29262
H         14.67885         0.34262        -1.07001
H         13.62130        20.33359         0.27153
H         17.12674         0.33592        -1.07397
H         16.08287        20.32889         0.18614
H         19.53283         0.33232        -0.77469
H         18.52856        20.32667        -0.02415
H         21.86783         0.39451        -0.01306
H         20.94301        20.34800        -0.30443
H         24.26659         0.47655         0.73103
H         23.35008        20.39194        -0.42600
H         26.63054         0.36713         1.23682
H         25.81540        20.35702        -0.22438
H         28.95253         0.30769         2.08024
H         28.18545        20.27385         0.04408
H         30.95884         1.53695         2.84629
H         32.07679         3.70084         3.27119
H         32.20848         6.13230         2.98502
H         32.53686         7.96097         2.36134
H         32.52603        10.40136         2.40458
H         32.21251        12.39549         2.62705
H         32.29844        14.81897         2.41102
H         32.08152        16.74211         2.53934
H         30.21628        20.34880         1.11201
H         31.94151        19.19195         2.45672
