         314
 CSIRO Nanostructure Databank - Neutral Graphene Oxide Data Set
C         30.52799        57.12900         1.34001
C         30.54756        58.52805         1.53903
C         29.39670        59.23311         1.97827
C         30.64421        61.31208         2.05156
C         29.45478        60.60633         2.22053
C         32.91542        52.89974         0.61730
C         32.85944        54.30238         0.52142
C         31.68859        55.01514         0.86406
C         32.89322        57.14353         0.61213
C         31.68160        56.42279         0.92546
C         32.93226        58.57236         0.85768
C         31.77122        59.24852         1.33361
C         33.04689        61.35224         1.45740
C         31.82490        60.65103         1.61421
C         35.38585        48.68962         0.69658
C         35.28448        50.05141         0.32202
C         34.15095        50.81778         0.64342
C         35.24509        52.87092        -0.24981
C         34.09244        52.18773         0.31178
C         35.19383        54.28318        -0.31892
C         34.04553        55.01246         0.11457
C         35.25025        57.18295        -0.17089
C         34.02390        56.44032         0.15749
C         35.32672        58.63734         0.16947
C         34.14029        59.28865         0.74824
C         35.44795        61.38736         0.81956
C         34.21429        60.68437         1.05268
C         37.78172        44.37317         0.67783
C         37.76919        45.77051         0.44308
C         36.61427        46.54476         0.74460
C         37.53993        48.47930        -0.45878
C         36.52709        47.90899         0.39446
C         37.27435        49.74561        -0.98901
C         36.32996        50.66631        -0.46251
C         37.64141        52.77298        -0.99510
C         36.41205        52.09566        -0.65226
C         37.65740        54.25143        -1.08597
C         36.37425        55.03506        -0.80651
C         37.71339        57.11362        -0.47790
C         36.50569        56.44849        -0.41617
C         37.92890        58.46829         0.20121
C         36.63187        59.19668         0.70716
C         37.84989        61.39672         0.32644
C         36.64000        60.71666         0.54408
C         40.04127        39.98967         0.53042
C         40.09956        41.38995         0.23965
C         38.98313        42.19165         0.57288
C         40.13679        44.30649         0.07922
C         38.93487        43.61062         0.40780
C         40.16816        45.70615        -0.11695
C         38.93386        46.41582        -0.08684
C         40.14386        48.53970        -0.99500
C         38.80851        47.76102        -0.68822
C         40.19041        50.01341        -1.11092
C         39.06626        50.77216        -1.44026
C         40.16419        52.88468        -1.03756
C         38.92095        52.15632        -1.14497
C         40.17914        54.30490        -1.01292
C         38.92936        55.00610        -0.98802
C         40.13875        57.17385        -1.12411
C         38.90702        56.39659        -0.83535
C         40.11734        58.69485        -1.05759
C         38.94871        59.35947        -0.46212
C         40.25493        61.46486        -0.28125
C         39.01483        60.72843        -0.14539
C         42.65179        35.80420         0.74138
C         42.61046        37.19572         0.40610
C         41.35207        37.82653         0.65773
C         42.77498        40.01042        -0.77822
C         40.97698        39.04566         0.08918
C         42.51156        41.43861        -0.63920
C         41.32098        42.04523        -0.19224
C         42.65792        44.30194        -0.03346
C         41.37506        43.51732         0.07070
C         42.63866        45.75782        -0.30920
C         41.42703        46.41896        -0.34040
C         42.65006        48.60972        -0.74368
C         41.37062        47.93106        -0.31235
C         42.66733        49.99033        -0.93602
C         41.41581        50.74093        -0.95658
C         42.64608        52.89379        -1.21909
C         41.38903        52.14312        -1.01861
C         42.65095        54.34653        -0.97468
C         41.42898        55.02969        -0.93353
C         42.61042        57.17690        -0.75147
C         41.43634        56.48224        -0.95834
C         42.71181        58.64042        -0.90843
C         41.42635        59.43329        -1.04445
C         42.71735        61.50864        -0.54385
C         41.44213        60.84880        -0.61081
C         45.03388        32.94705         1.22573
C         43.82229        33.63910         1.05145
C         45.09303        35.76111         0.91811
C         43.81213        35.03701         0.86793
C         45.07707        37.19352         0.44315
C         43.82502        37.88264        -0.00334
C         45.31103        39.83153        -0.50267
C         43.95384        39.22442        -0.50620
C         45.50249        41.21198        -0.92294
C         43.60928        42.31289        -0.98495
C         45.14457        44.25360        -0.43341
C         43.82133        43.58746        -0.57349
C         45.13514        45.73002        -0.56991
C         43.92982        46.40163        -0.56130
C         45.22177        48.65658        -0.57797
C         43.89743        47.86041        -0.83584
C         45.05728        50.10353        -0.40066
C         43.91382        50.71070        -0.91226
C         45.28107        52.92928        -1.16457
C         43.95393        52.15686        -1.23229
C         45.12516        54.35629        -0.65864
C         43.89426        55.01084        -0.70064
C         45.12499        57.19993        -0.13741
C         43.81772        56.43633        -0.34276
C         45.11718        58.67773        -0.28027
C         43.95491        59.35734        -0.51804
C         45.17560        61.52510        -0.41593
C         43.91976        60.81963        -0.51840
C         46.26669        33.58740         1.19420
C         47.59256        35.63590         0.87772
C         46.37223        34.99664         0.97405
C         47.69790        37.01369         0.36675
C         46.41762        37.73156         0.05857
C         47.66949        39.93544         0.40719
C         46.44872        39.18742        -0.08158
C         47.78220        41.30134        -0.20882
C         46.51752        42.01881        -0.50121
C         47.72462        44.27048        -0.36216
C         46.44685        43.50141        -0.39992
C         47.72571        45.64665        -0.36867
C         46.47688        46.43055        -0.84828
C         47.76477        48.48663         0.10680
C         46.43620        47.84339        -0.20395
C         47.90443        49.92607         0.35571
C         46.08282        50.97341         0.12953
C         47.61000        52.90237        -0.17045
C         46.32907        52.24217        -0.32489
C         47.62871        54.31673        -0.36335
C         46.36001        55.06165        -0.42538
C         47.59915        57.20548        -0.63994
C         46.37069        56.44935        -0.29809
C         47.60106        58.70379        -0.65201
C         46.41412        59.38788         0.02667
C         47.63494        61.55752        -0.16213
C         46.37090        60.87208        -0.24859
C         48.95063        37.80363         0.48605
C         50.19976        39.94762         0.51385
C         48.98213        39.17760         0.41181
C         50.27087        41.34283         0.37112
C         49.04252        42.05389        -0.08378
C         50.25100        44.26250         0.17362
C         48.93635        43.53307         0.06888
C         50.21581        45.67217        -0.20125
C         49.00363        46.34916        -0.27420
C         50.15984        48.54822        -0.39191
C         49.01765        47.80098        -0.26531
C         50.14649        50.04768        -0.65369
C         48.91566        50.72666        -0.09488
C         50.07420        52.90031        -0.04199
C         48.84496        52.17999        -0.07520
C         50.05651        54.30766        -0.04677
C         48.85335        55.00749        -0.30324
C         50.17216        57.25193        -0.29241
C         48.90493        56.46439        -0.61356
C         50.12962        58.72636        -0.17406
C         48.93339        59.47329        -0.75952
C         50.09349        61.58019        -0.10178
C         48.83490        60.89333        -0.23772
C         51.47703        42.09171         0.39355
C         52.72343        44.22087         0.10516
C         51.52638        43.49589         0.17985
C         52.76295        45.64840        -0.03921
C         51.49711        46.35596        -0.39466
C         52.63688        48.61076         0.02624
C         51.45944        47.85747        -0.50068
C         52.63154        50.08873        -0.07789
C         51.40811        50.77260        -0.21253
C         52.55745        52.88134         0.20069
C         51.35766        52.18002        -0.00457
C         52.52442        54.31323         0.58713
C         51.20240        55.07062         0.57582
C         52.49790        57.25320         0.68392
C         51.34143        56.51685         0.15771
C         52.44872        58.75703         0.74693
C         51.25036        59.43872         0.17992
C         52.57353        61.62117        -0.16122
C         51.26935        60.88825         0.03276
C         53.93683        46.37488         0.04273
C         55.15091        48.65579         0.17533
C         53.94093        47.84486         0.21049
C         55.10217        50.06031         0.24540
C         53.84250        50.77923         0.15479
C         55.04436        52.92611         0.30186
C         53.82256        52.20768         0.20988
C         55.05047        54.41545         0.08178
C         53.80554        55.08187         0.61494
C         55.00019        57.25225         0.69259
C         53.80851        56.56374         0.63192
C         54.98825        58.68522         0.96289
C         53.75063        59.50807         0.90094
C         55.07308        61.61814        -0.00227
C         53.81395        60.98163         0.44231
C         56.29615        50.81507         0.37049
C         57.49360        52.96681         0.56947
C         56.28481        52.23047         0.40251
C         57.50793        54.38054         0.68968
C         56.29648        55.12616         0.54712
C         57.52709        57.22289         0.83971
C         56.28577        56.52159         0.70305
C         57.46051        58.66553         0.94402
C         56.19309        59.27125         1.27588
C         57.60804        61.80385         0.26105
C         56.27639        61.39826         0.61610
C         58.70389        55.07954         0.98495
C         60.01302        57.11736         1.36969
C         58.75689        56.48221         1.00771
C         60.33030        58.38288         0.90464
C         58.50561        59.48676         0.52054
C         60.04602        61.39695         0.47400
C         58.69291        60.92836         0.47505
C         61.28580        59.35100         1.31242
C         61.17256        60.70166         0.94340
O         39.91929        57.99088        -2.32858
O         51.65334        47.06146        -1.70661
O         56.25452        60.57306         1.77423
O         45.71748        43.83250         0.88406
O         38.00975        50.15070        -2.10704
O         41.64990        39.29479        -1.14256
O         43.28566        52.47622        -2.50287
O         39.46262        47.80513        -2.01465
O         42.19524        43.86501         1.28176
O         45.05162        36.87571         1.88070
O         48.64815        41.48970        -1.39223
O         46.92550        47.83297         1.14638
O         52.16172        57.98030         1.95972
O         59.51927        58.81709        -0.17456
O         36.49987        58.97187         2.09989
O         46.89405        50.47038         1.16234
O         35.12125        58.25879        -1.21685
O         47.11131        37.05790        -1.04232
O         42.23491        59.14532        -2.21288
O         44.55798        41.71628        -1.80988
O         44.77067        48.28189        -1.91105
O         49.43662        43.96453         1.37272
O         36.78762        54.73774        -2.17516
O         53.02868        48.19757         1.36015
O         44.30195        56.75509         1.00855
O         49.77492        56.80376        -1.71972
O         53.67024        60.62574         1.83749
O         46.63483        46.52758        -2.22896
O         47.31626        57.98865        -1.87851
O         53.26810        54.51684         1.85800
O         49.23062        59.62879        -2.17216
H         48.99318        58.76944        -2.59860
O         52.79876        61.70693        -1.58131
H         51.94220        61.88238        -2.02380
O         38.68444        58.13830         1.40366
H         38.03728        58.38994         2.14768
O         47.37940        40.16196         1.82703
H         46.64980        40.81475         1.89795
O         46.68440        59.22301         1.45247
H         45.90206        59.53611         1.95327
O         54.98726        54.61857        -1.37569
H         55.79962        54.23190        -1.76627
O         41.16193        48.27868         1.10405
H         41.87353        47.85541         1.63037
O         50.10423        50.17509        -2.11004
H         50.63306        49.44868        -2.50362
O         50.77872        55.22306         1.97132
H         51.60735        55.30952         2.50405
O         45.79789        53.03661        -2.51229
H         45.01733        53.06252        -3.11389
H         29.60366        56.56885         1.54708
H         28.45653        58.68439         2.13158
H         30.68069        62.39059         2.26139
H         28.55316        61.13543         2.55956
H         32.04094        52.34822         0.99244
H         30.78166        54.45675         1.13937
H         33.07865        62.43214         1.66551
H         34.56470        48.23613         1.27008
H         33.30568        50.35285         1.17081
H         35.42668        62.48925         0.80082
H         36.87139        43.88152         1.04911
H         35.76439        46.06162         1.24790
H         37.90594        62.48015         0.52015
H         39.28562        39.66241         1.26027
H         38.07456        41.68586         0.93258
H         40.25777        62.52425         0.01650
H         41.68321        35.30100         0.88395
H         40.68925        37.34967         1.39467
H         42.72968        62.60338        -0.42933
H         45.00375        31.85828         1.37366
H         42.87137        33.08772         1.06360
H         45.16585        62.62057        -0.52568
H         47.19043        32.99892         1.29052
H         48.51902        35.06801         1.05569
H         47.63088        62.64728         0.00124
H         49.89294        37.24343         0.59593
H         51.13353        39.39284         0.69872
H         50.10318        62.68199        -0.10685
H         52.42654        41.55576         0.54859
H         53.67899        43.68562         0.21776
H         52.47205        62.66691         0.25560
H         54.89323        45.84517         0.17362
H         56.12723        48.15497         0.09570
H         55.02824        62.21074        -0.92646
H         57.25708        50.28621         0.45474
H         58.44001        52.41596         0.67181
H         57.79889        62.80802        -0.14784
H         59.62693        54.50552         1.15158
H         60.69690        56.57655         2.03995
H         60.18124        62.47639         0.30083
H         62.14780        59.03940         1.91959
H         62.05875        61.32761         1.13861
