         424
 CSIRO Nanostructure Databank - Neutral Graphene Oxide Data Set
C          1.13625         2.17673        -0.79060
C          1.12509         3.54593        -0.75782
C          2.36947         1.47016        -0.80939
C          2.34159         4.30873        -0.78457
C          1.11207         6.46114        -0.35724
C          1.11221         7.79142        -0.09985
C          2.31496         5.70906        -0.63763
C          2.36501         8.59220         0.13959
C          1.13631        10.83011         0.15265
C          1.17299        12.17493         0.23336
C          2.29631        10.03483        -0.39696
C          2.39037        12.93260        -0.03787
C          1.18540        15.13392        -0.06227
C          1.21276        16.48604        -0.01361
C          2.40217        14.34032        -0.09931
C          2.50706        17.23278         0.16785
C          2.48252        18.66401        -0.30274
C          3.57409         2.13657        -0.84690
C          3.60661         3.58520        -0.87844
C          4.82208         1.28059        -0.78218
C          4.82623         4.26958        -0.88382
C          3.53437         6.49738        -0.82901
C          3.60481         7.89201        -0.39227
C          4.88134         5.72890        -0.96938
C          4.81473         8.57144        -0.40335
C          3.61990        10.75233        -0.16957
C          3.61387        12.19383        -0.13110
C          4.79944        10.01209        -0.18574
C          4.83607        12.92199        -0.27147
C          3.64171        15.05314        -0.34601
C          3.67671        16.45226        -0.36587
C          4.85250        14.29616        -0.48867
C          4.87224        17.18470        -0.93471
C          3.62670        19.33120        -0.55890
C          4.91315        18.64981        -0.58052
C          6.13236         2.03758        -0.89791
C          6.12305         3.56453        -0.94167
C          7.35154         1.39564        -0.43096
C          7.35200         4.28332        -0.56718
C          6.11770         6.44935        -0.61874
C          6.08744         7.85557        -0.48173
C          7.32842         5.70954        -0.44596
C          7.33162         8.55577        -0.30863
C          6.08664        10.69328         0.02103
C          6.09889        12.20027        -0.05433
C          7.35900         9.97940        -0.19500
C          7.37674        12.88688        -0.28367
C          6.13200        14.97885        -0.92052
C          6.16518        16.46355        -0.66545
C          7.38163        14.27426        -0.47293
C          7.35435        17.14398        -0.48904
C          6.10179        19.30128        -0.42338
C          7.37315        18.60303        -0.41843
C          8.54440         2.10964        -0.31922
C          8.54664         3.56146        -0.37377
C          9.77452         1.42586        -0.07486
C          9.77039         4.25800        -0.08531
C          8.55902         6.40782        -0.23357
C          8.55845         7.83952        -0.23257
C          9.77311         5.69445        -0.06613
C          9.79816         8.54459        -0.14228
C          8.56609        10.69031        -0.19707
C          8.58272        12.14602        -0.21107
C          9.81398         9.97182        -0.19491
C          9.80113        12.85542        -0.22306
C          8.59361        14.98959        -0.35002
C          8.61275        16.43630        -0.36378
C          9.79128        14.25703        -0.17415
C          9.82476        17.14226        -0.25110
C          8.57436        19.27859        -0.33583
C          9.83891        18.58979        -0.27178
C         10.96821         2.11901         0.11681
C         10.95866         3.54341         0.15718
C         12.23103         1.41948         0.25220
C         12.20297         4.25804         0.61261
C         11.01948         6.40220         0.04880
C         11.02662         7.83120        -0.04682
C         12.23501         5.70747         0.21349
C         12.26586         8.53048        -0.01868
C         11.04970        10.65642        -0.20514
C         11.08273        12.12395        -0.51454
C         12.27397         9.95857        -0.11645
C         12.33678        12.79800        -0.04062
C         11.02211        14.99731         0.15116
C         11.06561        16.44973        -0.06365
C         12.32144        14.23818         0.24413
C         12.28804        17.12570         0.00809
C         11.05461        19.26329        -0.18950
C         12.30623        18.57109        -0.07759
C         13.43457         2.07774         0.28397
C         13.48486         3.52341         0.29764
C         14.71618         1.26477         0.29031
C         14.67831         4.22480         0.19686
C         13.47856         6.39143         0.17208
C         13.49566         7.81721         0.05287
C         14.71164         5.66389         0.19662
C         14.73869         8.51957         0.01404
C         13.52869        10.66012        -0.11063
C         13.53248        12.10928        -0.05434
C         14.74213         9.95341        -0.04968
C         14.79223        12.82076         0.04599
C         13.57210        14.98986         0.13175
C         13.54092        16.40472         0.11137
C         14.78811        14.26518         0.10204
C         14.77134        17.11853         0.12777
C         13.52750        19.25007        -0.02460
C         14.77601        18.55963         0.08643
C         15.92805         2.11769         0.69953
C         15.95485         3.45149        -0.06035
C         17.22457         1.37610         0.53513
C         17.21972         4.22946         0.25230
C         15.95690         6.37172         0.13823
C         15.96488         7.80458         0.05413
C         17.19534         5.67014         0.20383
C         17.21014         8.51996        -0.06928
C         15.99917        10.66394        -0.07475
C         15.99727        12.11615        -0.01593
C         17.19830         9.95761        -0.14488
C         17.24920        12.82826         0.08822
C         16.01060        14.97617         0.18326
C         15.99898        16.40479         0.20811
C         17.24537        14.25524         0.25248
C         17.23095        17.11310         0.31266
C         16.00147        19.24147         0.15483
C         17.23622        18.54561         0.29123
C         18.42152         2.07195         0.45851
C         18.39749         3.53529         0.43219
C         19.67082         1.39207         0.42497
C         19.66869         4.27361         0.75024
C         18.43657         6.39376         0.13511
C         18.42424         7.80549        -0.08392
C         19.66375         5.69177         0.24582
C         19.70970         8.50632        -0.45684
C         18.47143        10.71733        -0.46156
C         18.46683        12.13719         0.03330
C         19.72772         9.97116        -0.11820
C         19.69497        12.81053         0.27497
C         18.45642        14.94955         0.44070
C         18.44941        16.39444         0.49127
C         19.69051        14.22509         0.50742
C         19.64695        17.09553         0.69705
C         18.47628        19.22175         0.39973
C         19.67344        18.51436         0.61490
C         20.90644         2.08808         0.35301
C         20.91966         3.51388         0.39529
C         22.13722         1.38795         0.24650
C         22.13404         4.21663         0.22963
C         20.91508         6.37187         0.11586
C         20.94538         7.78422        -0.03144
C         22.13129         5.63874         0.12909
C         22.17900         8.50527         0.07393
C         20.91766        10.64908         0.14591
C         20.92723        12.09274         0.33299
C         22.16910         9.94866         0.20792
C         22.13928        12.77731         0.60637
C         20.90744        14.90147         0.75852
C         20.85495        16.34617         1.18425
C         22.12934        14.20029         0.80060
C         22.15582        17.06348         0.96587
C         20.94302        19.19448         0.70202
C         22.14022        18.51151         0.83804
C         23.36941         2.07142         0.20997
C         23.37486         3.49842         0.16799
C         24.61737         1.36763         0.21590
C         24.62148         4.21371         0.19790
C         23.38813         6.34353        -0.28422
C         23.38403         7.80293         0.06354
C         24.64315         5.62084         0.12908
C         24.66768         8.54699        -0.13249
C         23.39178        10.64926         0.43471
C         23.38691        12.07006         0.68796
C         24.62522         9.95278         0.39920
C         24.59518        12.76192         0.98232
C         23.36826        14.90133         1.06535
C         23.33250        16.35708         1.08990
C         24.57091        14.18953         1.20011
C         24.56844        17.12207         1.37978
C         23.40147        19.20866         0.78781
C         24.58963        18.56072         1.02357
C         25.83351         2.03842         0.31563
C         25.84673         3.49190         0.37134
C         27.08520         1.34185         0.28389
C         27.05013         4.18994         0.54197
C         25.85692         6.33503         0.29073
C         25.88393         7.76319         0.27773
C         27.07190         5.60718         0.51887
C         27.07793         8.45567         0.49954
C         25.84057        10.62738         0.64838
C         25.84275        12.03162         0.95612
C         27.07572         9.89861         0.60039
C         27.09080        12.69094         1.09748
C         25.82971        14.88506         1.61556
C         25.84504        16.40690         1.68308
C         27.12319        14.10063         1.56009
C         27.17364        17.22354         1.72844
C         25.84989        19.24936         0.97035
C         27.07151        18.65258         1.14504
C         28.30317         2.00256         0.45043
C         28.29027         3.43183         0.94647
C         29.54135         1.34426         0.31957
C         29.56680         4.18304         0.67502
C         28.31096         6.32010         0.63224
C         28.31328         7.72879         0.62024
C         29.55953         5.59211         0.66419
C         29.55819         8.44776         0.62336
C         28.30079        10.59163         0.67784
C         28.30638        12.00882         0.86392
C         29.54218         9.87305         0.58671
C         29.56031        12.72454         0.73523
C         28.42489        14.83332         1.39876
C         28.38960        16.35718         1.29371
C         29.58630        14.13594         0.80640
C         29.42950        16.85536         0.39426
C         28.27017        19.49703         1.15441
C         29.39648        19.05139         0.49128
C         30.77275         2.03697         0.42016
C         30.77935         3.47622         0.56263
C         32.00873         1.36535         0.30798
C         32.02329         4.18122         0.56746
C         30.80018         6.30266         0.65786
C         30.78986         7.74674         0.62740
C         32.01853         5.59124         0.67313
C         32.02262         8.46765         0.52650
C         30.76505        10.58078         0.46468
C         30.75840        12.03122         0.43765
C         31.98074         9.87558         0.39357
C         31.92902        12.75992         0.08983
C         30.75848        14.85976         0.45804
C         30.66374        16.28556         0.23628
C         31.91668        14.15184         0.03833
C         31.76647        17.11946        -0.42768
C         30.77394        19.37841         0.56313
C         31.84470        18.56119         0.12419
C         33.22872         2.05374         0.33777
C         33.26301         3.45686         0.46689
C         34.49423         1.24384         0.25544
C         34.51751         4.18395         0.39317
C         33.30624         6.31442         0.97709
C         33.27734         7.76197         0.55931
C         34.54010         5.57699         0.51317
C         34.48912         8.42868         0.35138
C         33.25374        10.67668         0.37011
C         33.12144        11.98445        -0.42990
C         34.44341         9.85530        -0.05935
C         34.41533        12.77987        -0.36771
C         33.06284        14.88632        -0.63057
C         33.09913        16.37172        -0.33288
C         34.38677        14.18096        -0.42458
C         34.30419        17.04117        -0.28639
C         33.11120        19.16229         0.18261
C         34.32100        18.49149        -0.11358
C         35.75214         2.05299         0.03360
C         35.74634         3.47223         0.14840
C         36.94644         1.38627        -0.20694
C         36.98216         4.19045         0.06577
C         35.76034         6.30685         0.33728
C         35.72354         7.73621         0.31704
C         36.98878         5.62322         0.13757
C         36.99308         8.48079         0.26518
C         35.69488        10.61845        -0.30184
C         35.65256        12.09990        -0.35469
C         36.99316         9.97218         0.04859
C         36.86655        12.80427        -0.49165
C         35.60625        14.90657        -0.43487
C         35.58318        16.35984        -0.40509
C         36.83405        14.21312        -0.49712
C         36.77086        17.08945        -0.53566
C         35.51897        19.19806        -0.22773
C         36.74541        18.53933        -0.51307
C         38.18165         2.08076        -0.28347
C         38.19639         3.47720        -0.10645
C         39.40561         1.37221        -0.56420
C         39.51584         4.17736         0.06055
C         38.23467         6.36459        -0.02924
C         38.23970         7.75535         0.00711
C         39.47545         5.65410        -0.22243
C         39.53090         8.54504         0.03527
C         38.22624        10.67047        -0.38660
C         38.14609        12.09056        -0.64062
C         39.41763         9.97546        -0.48075
C         39.29264        12.78419        -1.00039
C         38.15259        14.95010        -0.47468
C         38.03456        16.42748        -0.77096
C         39.17388        14.24710        -1.37612
C         39.16410        17.14752        -1.09877
C         37.92578        19.25656        -0.72518
C         39.14556        18.59713        -1.03510
C         40.58826         2.05098        -0.76364
C         40.66307         3.45879        -0.60068
C         41.82560         4.18755        -0.89430
C         40.67346         6.33507        -0.51244
C         40.69355         7.78789        -0.56166
C         41.85000         5.57657        -0.80692
C         41.77181         8.50386        -1.04101
C         40.61591        10.66658        -0.89147
C         40.56289        12.11030        -1.09505
C         41.76717         9.91890        -1.13331
C         41.70843        12.87478        -1.30043
C         40.48819        14.99703        -1.40575
C         40.39037        16.48167        -1.70726
C         41.66151        14.29789        -1.42044
C         41.64627        17.27624        -1.47258
C         40.34492        19.30833        -1.15598
C         41.58877        18.62430        -1.29001
O         26.43563        14.30392         2.83093
O         11.55454        14.58434         1.47228
O         28.90180        15.67202         2.48723
O          6.27630         2.74864        -2.16829
O         37.09113         9.47148         1.42242
O         34.95330        10.01333        -1.42390
O         29.11145        17.96562        -0.36988
O         24.98487        16.85786         2.78071
O          4.18071         6.27652        -2.12634
O          6.10318        11.50796         1.25163
O          2.72370        17.31566         1.63301
H          2.70084        16.39846         1.98128
O          2.51482         8.71271         1.58556
H          2.52392         7.81142         1.96920
O         20.69502        16.31223         2.65754
H         21.53237        15.96500         3.03481
O         40.14231        16.55054        -3.16087
H         39.36194        15.96671        -3.32886
O         32.84354        11.67727        -1.81322
H         32.72962        12.53656        -2.27833
O         38.61755        14.29521        -2.73570
H         39.15023        13.68896        -3.29329
O         27.40341        17.53631         3.11624
H         27.43957        16.68727         3.61014
O         33.40506         6.32814         2.45648
H         32.62255         6.81288         2.79594
O         34.32194         0.24655        -0.75683
H         35.16251        -0.24201        -0.86442
O         15.78708         2.46373         2.10774
H         15.96936         1.66162         2.64016
O         11.17696        12.20373        -2.00280
H         11.93041        11.63585        -2.27481
O         33.54546        11.05067         1.74845
H         32.75175        11.49097         2.12039
O         28.21915         3.32797         2.41779
H         27.40795         2.81960         2.63241
O         23.39788         6.31063        -1.77469
H         24.07369         6.98178        -2.05056
O         19.73606         8.42264        -1.97016
H         20.67684         8.48443        -2.24560
O         38.67790        14.84839         0.88072
H         38.03151        15.26384         1.48882
O         39.80647         4.08767         1.52341
H         40.63004         4.59856         1.68020
O         19.70769         4.38819         2.23905
H         18.85690         4.79231         2.51543
O          6.12206        14.83355        -2.41034
H          6.99473        15.14707        -2.73397
O         18.47363        10.83664        -1.93972
H         18.75872         9.95144        -2.28435
O         39.82791         8.69586         1.47341
H         39.01427         9.08506         1.87830
O          4.65279        17.14586        -2.39530
H          4.94035        16.24682        -2.69754
O          2.09502         9.92877        -1.83288
H          2.05421        10.83575        -2.20145
O          4.81419         0.53557         0.45086
H          4.59283         1.14454         1.18456
O         12.11913         4.26554         2.09776
H         12.97365         4.61553         2.43038
O         14.93748         0.66848        -0.99258
H         15.23072         1.38779        -1.59914
O         32.77872        14.75374        -2.08962
H         33.55655        15.12085        -2.56432
O         15.99513         3.14004        -1.48723
H         16.03699         3.98779        -1.97798
O         24.80591         8.68904        -1.63137
H         24.17616         9.39112        -1.90557
O         31.47570        17.23157        -1.84702
H         31.60060        16.33131        -2.23163
H          0.19254         1.61436        -0.78457
H          0.16036         4.06903        -0.73150
H          2.36207         0.37139        -0.78271
H          0.14425         5.94091        -0.39811
H          0.14805         8.29226         0.07178
H          0.20026        10.30276         0.38851
H          0.27605        12.71947         0.56272
H          0.21595        14.61743        -0.11433
H          0.27247        17.05753         0.00588
H          1.51804        19.19393        -0.29101
H          4.78617         0.51900        -1.60503
H          3.60579        20.41406        -0.75974
H          7.31979         0.32977        -0.16254
H          6.10998        20.38806        -0.24487
H          9.77677         0.32581        -0.07449
H          8.57542        20.37888        -0.30395
H         12.21642         0.31928         0.24664
H         11.06352        20.36393        -0.20680
H         14.60267         0.42268         1.02552
H         13.53509        20.34984        -0.07136
H         17.22781         0.27630         0.58462
H         16.00981        20.34160         0.12567
H         19.67593         0.29203         0.42804
H         18.49912        20.32053         0.34675
H         22.12869         0.28795         0.24157
H         20.95795        20.29012         0.60069
H         24.60598         0.26811         0.17735
H         23.40043        20.28691         0.56785
H         27.08052         0.26237         0.06652
H         25.82138        20.31830         0.70718
H         29.55442         0.26710         0.09115
H         28.24119        20.46893         1.66996
H         32.01805         0.27396         0.17652
H         31.04769        20.32942         1.04829
H         34.62091         0.71480         1.25643
H         33.17215        20.22782         0.45539
H         36.95664         0.28878        -0.30218
H         35.51035        20.29423        -0.13420
H         39.36382         0.28132        -0.69530
H         37.91144        20.35492        -0.66156
H         41.48894         1.50541        -1.08380
H         42.72622         3.65151        -1.22996
H         42.79096         6.09769        -1.02587
H         42.66750         7.98092        -1.40473
H         42.68080        10.41230        -1.49220
H         42.69543        12.39396        -1.33001
H         42.62234        14.82348        -1.51856
H         42.62372        16.78501        -1.57721
H         40.33776        20.40300        -1.05415
H         42.51869        19.20798        -1.22035
