         244
 CSIRO Nanostructure Databank - Neutral Graphene Oxide Data Set
C          1.29581         1.96219         0.79156
C          1.27256         3.36559         0.66899
C          2.48673         1.28360         0.94008
C          2.45786         4.12034         0.69801
C          1.26190         6.29039         0.35658
C          1.25805         7.67682         0.19534
C          2.46857         5.55912         0.47552
C          2.43929         8.41032         0.05332
C          1.25456        10.55071        -0.35126
C          1.26276        11.92877        -0.60675
C          2.43993         9.83586        -0.06734
C          2.41531        12.69536        -0.44013
C          1.34367        14.77096        -1.34215
C          1.33961        16.09269        -1.66865
C          2.47699        14.10105        -0.74355
C          2.46342        16.95964        -1.32022
C          2.61224        18.29731        -1.95416
C          3.72773         1.99936         1.01346
C          3.70191         3.44629         0.89054
C          4.92407         1.32244         1.19220
C          4.91961         4.17444         0.86716
C          3.70467         6.25389         0.38775
C          3.74129         7.67165        -0.12679
C          4.92716         5.58220         0.58814
C          4.97055         8.44824         0.29120
C          3.67453        10.55447         0.07955
C          3.57718        12.04762         0.27123
C          4.90021         9.89170         0.28250
C          4.88645        12.76375         0.11922
C          3.69245        14.80079        -0.58457
C          3.72436        16.25068        -0.83565
C          4.91441        14.14418        -0.19607
C          5.01833        16.86534        -1.14579
C          3.81395        18.82406        -2.22172
C          5.08630        18.02138        -2.11779
C          6.19891         2.05830         1.46839
C          6.16478         3.48441         0.96525
C          7.42225         1.29500         1.04555
C          7.34172         4.16620         0.68659
C          6.17534         6.30399         0.54845
C          6.16582         7.75697         0.51290
C          7.38669         5.59658         0.58853
C          7.42899         8.44889         0.66553
C          6.09188        10.66125         0.53492
C          6.06689        12.06470         0.47366
C          7.38452         9.95485         0.88976
C          7.25937        12.87998         0.92999
C          6.15823        14.87772        -0.19339
C          6.18652        16.20936        -0.77640
C          7.34456        14.29989         0.32130
C          7.45316        16.87202        -0.98540
C          6.32707        18.84121        -1.92908
C          7.49083        18.24476        -1.49705
C          8.57082         1.93087         0.66964
C          8.57139         3.40348         0.45697
C          9.78594         1.24850         0.31491
C          9.86823         4.15193         0.42462
C          8.66972         6.29941         0.60107
C          8.62905         7.74864         0.67888
C          9.88120         5.61381         0.62759
C          9.95338         8.45664         0.43277
C          8.56734        10.66986         0.17340
C          8.53997        12.10294         0.70695
C          9.82048         9.93885         0.65041
C          9.67448        12.63334         1.20642
C          8.56083        15.04812         0.22737
C          8.61454        16.25562        -0.54923
C          9.80125        14.67382         0.86806
C          9.92032        16.89898        -0.81694
C          8.73887        18.96446        -1.46605
C          9.93948        18.34896        -1.12955
C         10.99662         1.94490         0.27083
C         11.01907         3.31478         0.93058
C         12.11622         1.44627        -0.40869
C         12.38466         4.00637         0.95343
C         11.26387         6.25856         0.49690
C         11.25558         7.73483         0.86953
C         12.42034         5.50840         1.24072
C         12.50663         8.29608         1.10225
C         10.81581        10.69791         1.14424
C         10.97226        12.11237         0.68910
C         12.68988         9.70240         1.40179
C         12.30324        12.78735         1.12286
C         11.08330        14.99160         0.43498
C         11.17817        16.23694        -0.37215
C         12.31472        14.27028         0.68797
C         12.35993        17.09838         0.00842
C         11.19534        19.00488        -1.17571
C         12.40417        18.38465        -0.78441
C         13.32257         2.18223        -0.53561
C         13.59509         3.29797         0.42239
C         14.11771         2.00100        -1.66244
C         14.99490         3.92811         0.46366
C         13.77584         6.16092         0.87446
C         13.77121         7.58277         0.91556
C         14.97797         5.47421         0.63731
C         14.95471         8.35374         0.73395
C         13.70130        10.50987         0.94128
C         13.53304        11.99122         0.53665
C         14.93637         9.80789         0.65119
C         14.82422        12.76660         0.66942
C         13.54442        14.88832         0.44652
C         13.63813        16.28387         0.01117
C         14.79095        14.13215         0.58917
C         14.82617        16.88665        -0.32737
C         13.63935        18.99684        -0.95485
C         14.86865        18.31669        -0.65465
C         15.33243         2.73621        -1.85121
C         15.79261         3.52973        -0.76405
C         16.17852         2.56448        -2.97106
C         17.12555         3.88740        -0.77117
C         16.19972         6.24348         0.55033
C         16.19664         7.67390         0.55994
C         17.49785         5.67651         0.34419
C         17.43754         8.40867         0.46771
C         16.12430        10.52767         0.53929
C         16.07908        12.01356         0.24237
C         17.39106         9.84695         0.56501
C         17.33687        12.75008         0.59734
C         16.05591        14.95604         0.66794
C         16.09321        16.04835        -0.41070
C         17.32286        14.13915         0.61565
C         17.38686        16.86413        -0.30991
C         16.05437        19.02460        -0.64925
C         17.35611        18.38104        -0.42879
C         17.43915         3.19969        -3.05444
C         17.92536         3.93691        -1.93175
C         18.31361         3.05211        -4.18397
C         19.18443         4.63704        -1.93311
C         18.64427         6.35114        -0.07195
C         18.69291         7.76988         0.20904
C         19.59583         5.59261        -0.92664
C         19.92491         8.52100         0.35427
C         18.58985        10.57499         0.72163
C         18.56477        12.02864         0.79855
C         19.86006         9.90905         0.71605
C         19.73678        12.72783         1.04822
C         18.53861        14.87567         0.60737
C         18.56860        16.25597         0.33469
C         19.80026        14.15286         0.73638
C         19.73495        17.02913         0.59639
C         18.47098        19.11448         0.15318
C         19.64032        18.47410         0.57091
C         19.58419         3.55675        -4.13351
C         20.06046         4.33988        -3.02368
C         21.39196         4.81303        -3.01849
C         20.95165         5.94475        -0.93868
C         21.23466         7.94153         0.34511
C         21.85799         5.54466        -1.93674
C         22.38053         8.67644         0.63721
C         21.04682        10.63895         1.05956
C         20.89422        12.01442         1.68039
C         22.28829        10.02468         1.00239
C         22.14296        12.85632         1.79514
C         21.07989        14.94031         0.95685
C         20.93608        16.41321         1.08242
C         22.20320        14.17742         1.56277
C         21.96325        17.20781         1.59199
C         20.73586        19.23895         1.08762
C         21.85543        18.61640         1.59569
O          2.83760        16.99952         0.09684
O          9.24816         3.73836        -0.82584
O         10.80675        16.13396        -1.76553
O         20.75265        14.45746        -0.38347
O         11.65537        10.24834         2.15095
O         17.68431         4.30040         0.43835
O          9.67691        13.80155         1.98227
O         13.18549         3.13847         1.83674
O         17.73829        17.48708        -1.57924
O         21.49704         6.59200         0.17324
O         12.41089        12.74686         2.55281
H         11.64390        13.23249         2.92717
O         16.03976        15.66141         1.94041
H         15.90081        15.00271         2.65265
O         10.07276         8.36986        -1.05408
H          9.37178         8.96918        -1.42224
O          3.87632         7.53357        -1.60472
H          3.11446         6.99620        -1.91122
O          3.24725        12.21085         1.72145
H          3.26705        13.17385         1.91240
O         15.67398         3.37054         1.60804
H         14.99659         3.24404         2.31026
O          8.40325        10.60663        -1.25223
H          9.09122        11.20603        -1.62620
O         12.21873         5.70451         2.65098
H         12.70172         4.99474         3.12489
O          7.58691        10.13645         2.32006
H          7.28834        11.04709         2.56338
O         16.01235        12.08106        -1.24816
H         16.14962        13.02405        -1.50500
O         11.60230         6.14049        -0.91122
H         11.02500         6.78241        -1.39407
O          7.06914        13.02289         2.37636
H          7.85002        13.52128         2.71401
O         10.79450        12.16308        -0.75631
H         11.67325        12.00402        -1.18622
O         12.09829        17.47996         1.39810
H         12.85683        18.02041         1.70449
O         13.34850        11.89472        -0.91273
H         14.25378        11.79214        -1.31718
O          5.21202        17.37334        -3.45058
H          6.11222        16.98481        -3.49877
O         10.67942         3.11547         2.33323
H         11.44714         2.66174         2.74730
O          6.27937         2.16791         2.94792
H          5.48289         2.65788         3.24478
O         16.11303        15.35966        -1.68484
H         16.49122        15.99209        -2.33846
O         20.50094        11.77307         3.08341
H         19.77507        11.11282         3.07378
H          0.34813         1.40681         0.75202
H          0.30206         3.85799         0.52273
H          2.50003         0.18757         1.02358
H          0.29662         5.77916         0.46482
H          0.29080         8.19707         0.23331
H          0.31041        10.00726        -0.48966
H          0.33253        12.38695        -0.96975
H          0.46523        14.16958        -1.61228
H          0.50929        16.51364        -2.25490
H          1.69399        18.87967        -2.13106
H          4.91739         0.22639         1.29257
H          3.88957        19.83176        -2.65877
H          7.41443         0.20120         1.16971
H          6.34226        19.88085        -2.28927
H          9.75190         0.18292         0.04134
H          8.73338        20.02789        -1.74882
H         11.99650         0.53819        -1.01994
H         11.23954        20.02838        -1.57975
H         13.81649         1.25857        -2.41576
H         13.69497        20.00680        -1.38863
H         15.84809         1.91800        -3.79697
H         16.03236        20.11273        -0.81003
H         17.97086         2.48434        -5.06069
H         18.36270        20.19794         0.31102
H         20.27523         3.38821        -4.97294
H         22.06249         4.55648        -3.85070
H         22.90882         5.85428        -1.86925
H         23.35292         8.16831         0.62669
H         23.20104        10.57585         1.26360
H         23.01942        12.36821         2.24816
H         23.14038        14.71501         1.77502
H         22.88444        16.74410         1.97056
H         20.66786        20.33617         1.07466
H         22.68778        19.21579         1.98997
