         276
 CSIRO Nanostructure Databank - Neutral Graphene Oxide Data Set
C        -11.30507         0.61039         0.26579
C        -10.00462         1.35723         0.06352
C         -8.94068         0.82617         1.07191
C         -7.59418         1.45907         0.79549
C         -6.43885         0.85569         1.55289
C         -5.14448         1.63655         1.49862
C         -4.17524         0.91304         2.44978
C         -2.36524         1.63068         1.17973
C         -1.34700         0.94205         1.82492
C         -0.28629         1.83480         2.29951
C          1.51438         0.63076         2.20176
C          2.54936         1.48322         1.57175
C          3.86492         0.79235         1.37408
C          5.08912         1.57541         1.84561
C          6.39305         0.76661         1.69276
C          7.60576         1.39360         1.06073
C          8.93852         0.69107         1.23677
C         10.19264         1.54247         0.98858
C         11.37222         0.69528         0.59699
C        -10.09594         2.89808         0.17123
C         -8.75464         3.51057        -0.22408
C         -7.51114         2.78732         0.16830
C         -6.25504         3.56507         0.36717
C         -5.05485         2.87572         0.91846
C         -3.82716         3.74828         1.03001
C         -2.52846         3.10630         1.40887
C         -1.25050         3.94843         1.60850
C         -0.02925         3.07951         1.76881
C          1.30603         3.80338         1.98483
C          2.49835         2.96815         1.45850
C          3.83937         3.61332         1.19116
C          5.02845         2.94756         1.17805
C          6.32447         3.67751         0.84613
C          7.52331         2.78800         0.51539
C          8.78550         3.52213         0.21220
C         10.00876         2.67345        -0.04244
C         -8.61413         4.61715        -0.97902
C         -7.25082         4.97916        -1.53475
C         -6.12845         4.80509        -0.45840
C         -4.73128         5.29276        -0.79089
C         -3.77093         5.17912         0.44310
C         -2.34727         5.65486         0.11565
C         -1.13172         5.10137         0.66173
C          0.06544         5.80723         0.67997
C          1.29549         5.24630         1.33866
C          2.60042         5.85781         0.86959
C          3.72398         4.93150         0.51602
C          4.84229         5.42952        -0.32552
C          6.21049         4.80435        -0.20176
C          7.50948         5.56195        -0.43134
C          8.76756         4.84641        -0.06126
C         -7.09445         6.37510        -2.02004
C         -5.88430         6.67684        -2.84021
C         -4.57086         6.12059        -2.05690
C         -3.33042         6.83627        -2.64477
C         -2.25981         6.92564        -0.45753
C         -1.02218         7.32745        -1.13556
C          0.21732         6.83278        -0.38157
C          1.38769         7.75309        -0.41869
C          2.63716         7.22650         0.21825
C          3.88346         7.73646        -0.40580
C          4.75756         6.80912        -0.85506
C          6.70408         7.80704        -1.22078
C          7.61577         7.05111        -0.56340
C         -5.79047         8.17220        -3.05599
C         -4.67445         8.91848        -2.96143
C         -3.36532         8.34348        -2.67860
C         -2.27504         9.11387        -2.41691
C         -0.92738         8.47562        -2.17302
C          0.25882         9.38165        -1.94736
C          1.45256         8.90586        -1.37692
C          2.67756         9.56040        -1.57198
C          3.91143         9.21562        -0.76322
C          5.22556         9.79106        -1.28164
C          6.46632         9.25137        -1.31486
C        -11.32112        -0.68789         0.60264
C        -10.11148        -1.42381         1.15441
C         -8.80426        -0.67017         0.87458
C         -7.57708        -1.17430         0.51072
C         -6.28710        -0.56442         0.98554
C         -5.14913        -1.38617         1.54618
C         -4.03400        -0.68049         2.40673
C         -2.57672        -1.31040         2.05730
C         -1.26152        -0.53297         1.83965
C         -0.05876        -1.26395         1.82240
C          1.28115        -0.67165         1.80594
C          2.47936        -1.41363         1.39763
C          3.79524        -0.68717         1.32421
C          5.04711        -1.45704         1.61910
C          6.37239        -0.73309         1.62660
C          7.59658        -1.51020         1.22277
C          8.94007        -0.83258         1.17987
C         10.10012        -1.44675         0.44329
C         11.29510        -0.61731         0.30850
C        -10.03277        -2.86725         0.77355
C         -9.00007        -3.71798         1.18718
C         -7.82544        -3.25928         2.03478
C         -6.50187        -3.72340         1.48093
C         -5.23767        -2.90431         1.70500
C         -3.90063        -3.58845         1.60705
C         -2.59356        -2.77660         1.66391
C         -1.33611        -3.31022         0.94939
C         -0.07992        -2.75574         1.62345
C          1.20862        -3.53840         1.38050
C          2.46525        -2.76741         1.23638
C          3.68295        -3.45553         0.66357
C          4.97789        -2.88223         1.21905
C          6.22612        -3.52831         0.69334
C          7.48952        -2.86587         1.17334
C          9.18920        -3.73359        -0.07778
C         10.11619        -2.63623        -0.25821
C         -8.92606        -4.99617         0.63701
C         -7.67576        -5.82288         0.67208
C         -6.44559        -4.94206         0.88800
C         -5.16420        -5.30618         0.17402
C         -3.90146        -5.04408         1.08503
C         -2.62925        -5.32813         0.27901
C         -1.34553        -4.85170         0.95075
C         -0.09424        -5.49841         0.35518
C          1.21055        -4.87520         0.69604
C          2.36964        -5.52051         0.37472
C          3.67899        -4.97740         0.89222
C          4.96045        -5.64307         0.36360
C          6.13476        -5.03502         0.69486
C          7.86260        -5.76315        -0.60067
C          8.87528        -4.76705        -0.92703
C         -7.57649        -6.62671        -0.61994
C         -6.39662        -7.09877        -1.09226
C         -5.16396        -6.78783        -0.26741
C         -3.84658        -7.23551        -0.92745
C         -2.63258        -6.35726        -0.80815
C         -1.35813        -6.75460        -1.58524
C         -0.11997        -6.52302        -0.73608
C          1.16402        -6.94676        -1.38340
C          2.42156        -6.59755        -0.65269
C          3.60358        -7.52940        -0.70595
C          4.93538        -7.02731        -0.21148
C          6.24632        -7.66860        -0.74352
C          7.24545        -6.69277        -1.37715
C         -6.30362        -8.03232        -2.20883
C         -5.15074        -8.63048        -2.59273
C         -3.84086        -8.28723        -1.99540
C         -2.56481        -8.64732        -2.67047
C         -1.37694        -8.11971        -2.25371
C         -0.08720        -8.65856        -2.66824
C          1.10345        -8.14574        -2.25745
C          2.44351        -8.63810        -2.75728
C          3.45570        -8.78176        -1.59006
C          4.78836        -9.26122        -2.11121
C          5.97737        -8.77532        -1.74590
O          2.09088         2.13617         0.32244
O         -3.45284         3.62022         2.43763
O          7.35350        -5.70469         0.71744
O         -3.84420         1.44587         3.49013
O         -0.21658         6.22764        -1.64465
O         -2.30302        -2.36957         3.02524
O         -3.62855        -8.63229        -0.54306
O          7.29634         1.64290        -0.36975
O         -7.90992        -2.57775         3.03658
O          4.10771        -7.92797         0.62125
O          3.77186         4.62242        -0.94181
O         -6.52835         4.90987         0.91558
O          3.99105         0.11252         0.09259
O          1.79710         8.17858         0.93323
O          0.54316        -3.51116         2.68592
O          9.18136        -0.09680         2.43181
O         -5.12742        -0.90617         0.15932
O         -4.35756         4.69334        -2.06414
O          2.14433         6.04413         2.23478
O         -0.16073        -6.95691         0.65462
O         -1.23872        -5.91571        -2.70758
O          0.66721         1.22033         3.12063
O          6.87312         4.72357        -1.47967
O          5.66754         7.10127        -1.86684
O          8.61344        -3.68344         1.21127
O          6.63356        -0.00397         2.89642
O         -2.81584        -4.91707        -1.10631
O          4.93425        -2.51434         2.61977
O         -2.48695         6.16627        -3.20209
O         -7.25337         1.56622        -0.62763
O         -4.57796        -3.44689         2.89274
O          2.07252        -5.93284        -1.94277
O         -5.31927        -7.56802         0.94503
H         -4.84681        -8.42274         0.78953
O         -3.03232         1.10900         0.11086
H         -2.71519         0.20304        -0.08796
O        -10.28471        -1.38294         2.59742
H        -10.19620        -0.43644         2.86494
O        -11.12845         3.37744        -0.68104
H        -10.99567         2.95536        -1.55647
O         -4.31405        -0.99424         3.76608
H         -3.85346        -1.84532         3.98044
O          2.94892        -7.74451        -3.75237
H          2.72862        -6.82496        -3.46853
O         -0.54888         7.90970        -3.45983
H         -0.19115         7.00273        -3.29240
O          3.73752         9.96818         0.48119
H          2.95275         9.57757         0.94419
O         10.47988         2.20585         2.24141
H         10.45019         1.51519         2.94085
O         -7.76817        -6.76357         1.77479
H         -6.92494        -7.28645         1.75566
O         -5.24249        -4.41068        -0.95740
H         -4.44458        -4.53552        -1.52966
O         -3.22768         7.84511        -0.21925
H         -3.81998         7.48896         0.49910
O          6.67482         4.38496         2.07614
H          6.41725         3.82947         2.84435
O          1.51147         3.96136         3.39166
H          0.80297         4.55087         3.73041
O         -6.82935         0.72252         2.93986
H         -6.10546         0.30492         3.46336
O          2.89858        -9.81868        -0.74962
H          3.37503        -9.77702         0.10968
O         -9.39994         1.21275         2.38400
H         -8.65127         1.05715         3.01109
O         -7.43672        -2.25923        -0.30455
H         -6.48862        -2.34633        -0.56196
O         -1.40065        -5.24424         2.32575
H         -1.17459        -6.19808         2.37862
O          4.92116         1.83844         3.25769
H          5.37471         1.10661         3.74469
O         -3.93694        -5.91200         2.21209
H         -4.32627        -5.41289         2.96545
O         -5.87308         6.02954        -4.10674
H         -6.09338         5.08130        -3.94892
O         -9.62055         1.09187        -1.30309
H         -9.41295         0.13673        -1.38403
O          6.89501        -8.28832         0.39063
H          6.18974        -8.68374         0.94633
O         -4.30604         6.09270         1.43553
H         -4.01808         5.76359         2.31764
O         -6.96170         4.04596        -2.59680
H         -7.16237         3.13507        -2.28802
O         -1.33505         4.59912         2.92392
H         -1.71992         3.95812         3.56156
O          6.28661        -3.21111        -0.74794
H          5.38276        -3.37516        -1.12797
O         -1.30366        -2.80077        -0.39737
H         -1.68430        -3.46761        -1.02120
O          3.69513        -5.16919         2.32281
H          3.67830        -6.13379         2.49853
O          9.87086         2.11403        -1.35439
H          8.92703         1.85670        -1.47590
O          3.64604        -3.24621        -0.77550
H          3.40759        -2.31092        -0.95697
H         12.20113        -1.13338        -0.04607
H         12.33528         1.21708         0.49346
H         10.92901         3.30891        -0.03442
H          9.71636         5.35951        -0.28639
H          8.44645         7.52585        -0.02269
H          7.32522         9.91711        -1.50015
H          5.16402        10.88437        -1.41423
H          2.69404        10.45683        -2.21161
H          0.32374        10.26603        -2.60131
H         -2.36113        10.21169        -2.44313
H         -4.72732        10.00659        -3.12104
H         -6.73967         8.67195        -3.30133
H         -7.41807         7.15634        -1.31094
H         -9.50047         5.16817        -1.32698
H        -10.34859         3.18809         1.22293
H        -12.23569         1.12079        -0.02906
H        -12.28506        -1.21743         0.66970
H        -10.76884        -3.27035         0.05724
H         -9.78299        -5.37716         0.05685
H         -8.51895        -6.90878        -1.11678
H         -7.24183        -8.28603        -2.72614
H         -5.15879        -9.34007        -3.43353
H         -2.57581        -9.54493        -3.30972
H         -0.09406        -9.53960        -3.33014
H          2.32789        -9.64587        -3.22982
H          4.74711       -10.10198        -2.82174
H          6.88547        -9.23639        -2.16630
H          7.53499        -6.84123        -2.42685
H          9.33526        -4.79771        -1.92468
H         10.97280        -2.80520        -0.93197
