         210
 CSIRO Nanostructure Databank - Neutral Graphene Oxide Data Set
C         30.90738        31.59554        -1.46278
C         30.94040        32.85313        -1.52378
C         30.93408        36.00157        -1.63010
C         30.92444        37.26050        -1.66321
C         30.93550        40.41087        -1.62715
C         30.85909        41.66840        -1.55699
C         33.05699        28.86372        -0.24803
C         32.04373        29.39085        -0.74607
C         33.01117        31.57302        -0.29858
C         31.89976        30.80528        -0.86032
C         32.97743        32.99960        -0.39216
C         31.93179        33.72728        -1.03931
C         33.05297        35.93206        -0.63992
C         31.93429        35.15974        -1.11169
C         33.06129        37.36997        -0.69643
C         31.94425        38.11799        -1.20233
C         33.03178        40.27962        -0.58515
C         31.94504        39.54548        -1.16056
C         33.00355        41.73331        -0.45222
C         31.83384        42.47659        -0.96572
C         32.76733        44.45895         0.01333
C         31.93989        43.87023        -0.69656
C         35.55294        27.37091         0.75656
C         35.31012        28.75327         0.82701
C         34.22269        29.43668         0.32888
C         35.34120        31.58660         0.70378
C         34.17494        30.89619         0.28462
C         35.27337        33.06191         0.76369
C         34.03999        33.79842         0.24572
C         35.32149        35.93982         0.30643
C         34.15863        35.24086        -0.05672
C         35.35488        37.37285         0.18867
C         34.20274        38.09327        -0.23074
C         35.32903        40.21314         0.31244
C         34.18562        39.53098        -0.15133
C         35.22816        41.63619         0.80347
C         34.03902        42.40239         0.23291
C         35.24833        44.49798         0.01872
C         34.01203        43.90790         0.63510
C         35.42788        45.55218        -0.84903
C         37.89128        27.23339         1.10510
C         36.59531        26.68907         0.86512
C         37.82524        28.69646         1.49033
C         36.47153        29.46494         1.53323
C         37.76175        31.65529         1.35011
C         36.56343        30.93276         1.10276
C         37.68760        33.12777         1.30526
C         36.51751        33.82449         0.88653
C         37.72139        35.97365         0.90689
C         36.50615        35.23433         0.75109
C         37.76609        37.38547         0.72765
C         36.55493        38.09016         0.45813
C         37.81031        40.20680         0.55056
C         36.54859        39.51300         0.48458
C         37.82520        41.64565         0.45883
C         36.57580        42.37916         0.66630
C         37.82162        44.45917        -0.26785
C         36.57226        43.87403         0.27885
C         37.79460        45.77170        -0.91703
C         36.47326        46.17766        -1.21337
C         40.27933        24.51769         0.34094
C         39.28489        25.23407         0.59592
C         40.43527        27.24652         1.29494
C         39.08264        26.57617         0.98354
C         40.37459        28.75035         0.96575
C         39.11640        29.46238         1.37640
C         40.30937        31.56691         1.22749
C         39.05608        30.95500         1.34456
C         40.55354        32.91361         1.65550
C         38.72713        33.95981         1.75872
C         40.17487        35.97634         1.33678
C         38.89600        35.30960         1.35041
C         40.23582        37.34127         1.00621
C         39.00884        38.07614         0.80117
C         40.29211        40.16938         0.20613
C         39.01440        39.48658         0.61264
C         40.29928        41.67062         0.36408
C         39.02993        42.36224         0.28004
C         40.31592        44.38915        -0.39985
C         39.01461        43.75334        -0.08353
C         40.30324        45.82648        -0.83742
C         38.98453        46.50576        -1.08755
C         40.31213        48.50764        -1.49427
C         39.24669        47.80878        -1.51002
C         42.74540        24.62642        -0.39714
C         41.58617        25.06421         0.21137
C         42.85218        27.36174         0.16204
C         41.67614        26.51249         0.68438
C         42.72011        28.83762         0.09511
C         41.48786        29.46328         0.56557
C         42.53603        31.70069         0.19653
C         41.47922        30.92739         0.63153
C         42.51876        33.22179         0.19598
C         41.49588        33.75192         1.16489
C         42.74577        35.90758         1.37026
C         41.43955        35.19769         1.52301
C         42.70658        37.33911         1.03338
C         41.51932        38.03151         0.85499
C         42.74070        40.17533         0.63027
C         41.56073        39.46832         0.62198
C         42.75945        41.66634         0.87822
C         41.50430        42.36007         0.39427
C         42.77541        44.45784         0.11896
C         41.56039        43.76799         0.12961
C         42.76420        45.93836        -0.03463
C         41.50365        46.67148        -0.49471
C         42.85498        48.62717        -0.89083
C         41.56769        48.09777        -1.04372
C         43.70556        25.37539        -0.78110
C         44.88009        27.56391        -1.31243
C         43.86882        26.74621        -0.74405
C         44.91452        28.97126        -1.03659
C         43.75339        29.58943        -0.43630
C         45.01928        31.78490        -0.35674
C         43.67090        31.09565        -0.58786
C         45.09171        33.12474         0.11622
C         43.89066        33.84695         0.47364
C         45.28392        35.75679         1.32264
C         43.95611        35.13135         0.96358
C         45.24295        37.29617         1.24846
C         43.99658        37.97462         0.76564
C         45.30206        40.22107         0.71391
C         44.02693        39.47763         0.56419
C         45.28449        41.65193         0.59262
C         44.05439        42.36177         0.49631
C         45.28580        44.48144         0.22610
C         44.04057        43.76277         0.28948
C         45.26698        45.91554        -0.00230
C         44.07777        46.63264        -0.17563
C         43.87224        47.97522        -0.51122
C         47.00171        27.86548        -2.31983
C         46.00767        27.14200        -2.05898
C         47.23232        29.20336        -1.95128
C         46.08102        29.76553        -1.30096
C         47.54419        31.67112        -0.50149
C         46.16948        31.10612        -0.78305
C         47.55524        33.16543        -0.29974
C         46.37483        33.82120         0.14008
C         47.68101        35.88876         0.51946
C         46.45369        35.17388         0.55987
C         47.75329        37.29709         0.82599
C         46.51436        38.05833         1.08409
C         47.75996        40.20331         0.78629
C         46.50256        39.51832         0.78885
C         47.77017        41.63344         0.69800
C         46.53604        42.35222         0.56848
C         47.79465        44.45873         0.43345
C         46.52426        43.77632         0.40959
C         47.64431        45.85441         0.22166
C         46.57870        46.46182        -0.00695
C         49.62778        29.53391        -2.75197
C         48.44858        29.94644        -2.09349
C         49.88808        31.87700        -1.45774
C         48.63035        31.19722        -1.45465
C         49.98945        33.16614        -0.80485
C         48.79805        33.84167        -0.31989
C         50.12728        35.89271         0.17043
C         48.87095        35.20872         0.09929
C         50.18141        37.28203         0.53191
C         48.95904        38.01205         0.74814
C         50.22772        40.16385         0.88075
C         48.97988        39.46359         0.83730
C         50.26216        41.60681         0.89066
C         49.02461        42.32728         0.75334
C         50.30190        44.30472         0.73657
C         48.99810        43.76375         0.64444
C         50.76290        30.07371        -2.78851
C         52.24327        32.02428        -1.92582
C         51.05148        31.27961        -2.11240
C         52.28663        33.09886        -1.28317
C         51.23547        33.84929        -0.70099
C         52.47744        35.94596         0.02325
C         51.31893        35.16009        -0.16122
C         52.52890        37.14334         0.39299
C         51.42046        37.98780         0.64022
C         52.57018        40.22007         0.98495
C         51.44398        39.38945         0.87492
C         52.66183        41.47403         1.04916
C         51.53649        42.31981         0.96397
C         51.40290        43.73071         0.89925
O         36.70939        43.42972         1.66995
O         34.21335        33.52486         1.67831
O         38.59810        28.96896         2.69066
O         39.67179        33.41558         2.62517
O         40.52430        44.77507        -1.82822
O         41.84375        46.59930         0.92157
O         44.11740        38.53354        -0.58087
O         42.84029        26.77948         1.52040
O         42.22529        35.56149         2.71180
O         45.86078        37.87323         2.43800
O         40.30395        39.99614        -1.26935
H         39.51013        40.44636        -1.62965
O         34.99541        41.51829         2.23723
H         35.23497        42.39249         2.63004
O         47.91324        31.09631         0.80782
H         48.75932        31.50742         1.08651
O         45.52239        35.37983         2.70665
H         45.84856        36.18860         3.17163
O         34.03899        44.06648         2.04489
H         33.21459        43.69230         2.41891
O         43.34960        31.33918        -2.01183
H         44.08290        30.96375        -2.54640
O         42.12195        33.64772        -1.14389
H         42.54256        33.02291        -1.78411
O         40.58802        27.15645         2.71986
H         41.55311        27.20806         2.91336
O         36.08646        29.52760         2.92496
H         36.91895        29.54246         3.45449
O         42.71096        41.78210         2.34875
H         42.71988        42.73641         2.57652
