         486
 CSIRO Nanostructure Databank - Neutral Graphene Oxide Data Set
C          9.02560        18.40416         1.10059
C          9.36334        19.45005         2.14500
C          8.21918        20.26499         2.70576
C          9.74020        22.10969         3.43214
C          8.40471        21.46556         3.28766
C          9.88254        23.48933         3.95893
C         10.96239        14.57006        -1.51746
C         11.16737        15.77119        -0.63218
C          9.94455        16.62343        -0.37765
C         11.49295        18.32003         0.59711
C         10.05444        17.79640         0.35813
C         11.52704        19.82652         0.80577
C         10.46738        20.38457         1.68169
C         12.02170        22.33676         2.19930
C         10.82655        21.54014         2.55206
C         12.20956        23.58936         3.02470
C         11.05029        24.18521         3.79774
C         12.50234        26.20254         4.07831
C         11.34734        25.47920         4.38892
C         12.76137        27.52077         4.60479
C         12.88982        10.24705        -2.41695
C         12.91608        11.64660        -2.75049
C         11.88332        12.52236        -2.43877
C         13.40592        14.56219        -1.95587
C         12.02281        13.93287        -2.10277
C         13.43874        16.03809        -1.66009
C         12.34858        16.60635        -1.07665
C         13.70582        18.71934        -0.67569
C         12.39885        17.97855        -0.57654
C         13.95082        19.78430         0.32884
C         12.86836        20.45462         0.84509
C         14.34779        22.38694         1.14374
C         13.03804        21.76734         1.44586
C         14.43335        23.82301         1.04248
C         12.86099        24.69659         2.25570
C         14.58934        26.45639         2.57699
C         13.31066        25.78613         2.93239
C         14.82315        27.79220         3.22042
C         13.78321        28.32993         4.13947
C         14.83947        30.56521         4.03982
C         13.92931        29.68833         4.59019
C         14.99368        31.90413         4.56047
C         15.21854         7.55356        -1.46865
C         14.07689         8.16977        -1.88538
C         15.38256        10.16286        -2.67038
C         14.07086         9.54466        -2.32495
C         15.41128        11.60092        -3.03029
C         14.17947        12.13946        -3.26728
C         15.68118        14.75302        -2.99546
C         14.39852        14.29228        -3.04573
C         15.85445        16.10825        -2.47119
C         14.68628        16.77913        -1.88852
C         15.92963        18.91883        -1.92197
C         14.79747        18.09158        -1.45661
C         16.10790        20.35752        -1.50687
C         15.32301        20.18154         0.75119
C         16.86449        22.30931         0.79488
C         15.48439        21.64858         0.92126
C         16.85570        23.82560         1.14373
C         15.56381        24.55708         1.18320
C         16.77896        26.76383         1.37688
C         15.43644        26.06138         1.35029
C         16.75013        28.19487         1.71893
C         15.79456        28.70051         2.57052
C         16.70387        31.09786         2.34345
C         15.66589        30.14571         2.87326
C         16.87527        32.42285         3.02323
C         15.95433        32.78263         4.12574
C         17.32776        34.76870         4.62387
C         16.15730        34.09857         4.71937
C         17.47430         7.85569        -0.57319
C         16.48609         8.24879        -1.43393
C         18.02042        10.14086        -2.34433
C         16.65026         9.44946        -2.29243
C         17.99149        11.61666        -2.85649
C         16.71016        12.32745        -3.27554
C         18.18086        14.52300        -3.27526
C         16.81692        13.86415        -3.42860
C         18.20507        16.04317        -3.24069
C         17.05035        16.77045        -2.66786
C         18.44874        18.93797        -2.46946
C         17.13537        18.23856        -2.51859
C         18.59332        20.20483        -1.93650
C         17.48277        20.86530        -1.23427
C         18.81285        22.92998        -0.85121
C         17.67295        22.00033        -0.47836
C         19.30106        23.94025         0.23872
C         18.09032        24.64619         0.91059
C         19.16638        26.92233         0.79544
C         17.93213        26.13840         0.97184
C         19.12185        28.39319         0.86814
C         17.85547        29.05430         1.22260
C         19.19685        31.18321         1.74058
C         17.87528        30.53858         1.58341
C         19.35817        32.43694         2.31658
C         18.19963        33.11342         2.95996
C         19.56874        35.08867         3.44220
C         18.55909        34.13889         4.02472
C         19.70872         8.11494         0.33388
C         18.68949         8.61637        -0.40902
C         20.18329        10.48529        -1.16271
C         18.75259        10.01171        -1.00114
C         20.39871        11.47207        -2.27728
C         19.25376        12.39914        -2.59469
C         20.60031        14.57535        -2.52417
C         19.36541        13.77510        -2.75391
C         20.73806        15.89210        -3.29234
C         19.49809        16.76390        -3.46446
C         20.93304        18.76211        -2.73889
C         19.57540        18.32922        -3.30260
C         21.04036        20.26574        -2.56621
C         19.88582        20.91141        -1.94491
C         21.24173        22.96779        -1.61609
C         19.99718        22.18797        -1.44378
C         21.15437        24.43438        -1.37644
C         20.25907        24.90649        -0.46293
C         21.17570        27.28834        -0.70416
C         20.30431        26.31244         0.01458
C         21.37229        28.65446        -0.13860
C         20.26096        29.14487         0.63180
C         21.64172        31.29048         0.96932
C         20.37078        30.47533         1.24830
C         21.61378        32.70073         1.36005
C         20.57193        33.18578         2.17520
C         21.66780        35.40640         2.23052
C         20.59180        34.59140         2.62204
C         21.61590         8.78336         1.87123
C         21.06756         8.74153         0.42611
C         22.55616        10.67630        -0.32139
C         21.16344        10.06725        -0.32017
C         22.67527        12.16577        -0.67248
C         21.62883        13.04684        -0.82632
C         23.11516        14.58631        -2.20766
C         21.70089        14.14456        -1.78242
C         23.11549        16.08683        -2.38570
C         22.05078        16.62420        -3.27823
C         23.37681        18.85619        -3.26570
C         22.07697        18.12913        -3.60043
C         23.35350        20.33920        -3.61260
C         22.16623        20.97080        -2.88450
C         23.21106        23.24322        -3.39142
C         22.35057        22.38272        -2.45769
C         23.25646        24.75775        -2.94663
C         22.15434        25.30418        -2.06537
C         23.47227        27.54587        -1.65343
C         22.19000        26.74787        -1.64431
C         23.15844        29.06379        -1.86677
C         22.37285        29.50362        -0.62635
C         23.45872        31.74908        -0.62623
C         22.53178        30.83623        -0.11307
C         23.55305        33.07820        -0.08346
C         22.68577        33.52383         0.91562
C         23.95532        35.69709         1.13480
C         22.92821        34.77750         1.71474
C         23.97434         8.84290         2.82442
C         23.06086         9.21051         1.85223
C         24.57414        11.12922         1.16215
C         23.29741        10.39410         0.98410
C         24.91119        12.33830         0.32608
C         24.09959        12.64109        -0.92808
C         25.37104        14.81155        -1.06450
C         24.21256        14.10994        -1.27731
C         25.54968        16.16845        -1.66011
C         24.32257        16.89855        -2.09345
C         25.56805        19.12292        -2.15072
C         24.42229        18.28895        -2.62182
C         25.71587        20.48418        -2.73778
C         24.63151        21.10258        -3.26844
C         25.89764        23.37406        -3.34732
C         24.64358        22.55100        -3.77173
C         25.85805        24.85628        -3.10150
C         24.52205        25.64412        -3.22838
C         25.78013        27.66772        -2.40875
C         24.59391        26.95758        -2.44831
C         25.77605        29.11832        -2.13814
C         24.45470        29.86091        -2.21121
C         25.76994        31.96258        -1.54183
C         24.37400        31.37573        -1.78716
C         25.81208        33.37330        -1.07697
C         24.51402        34.07965        -0.71021
C         25.99209        36.08889        -0.12494
C         24.79800        35.30387         0.14806
C         26.28857         8.96657         3.81436
C         25.25829         9.45895         2.97679
C         26.96315        11.18251         2.10617
C         25.63532        10.51058         2.00052
C         27.37209        12.33173         1.17838
C         26.20532        13.04053         0.51197
C         27.60942        15.00303         0.05792
C         26.49706        14.27402        -0.27793
C         27.67218        16.44184        -0.28103
C         26.75096        16.97837        -1.32213
C         28.00393        19.18201        -1.27293
C         26.70946        18.47914        -1.42046
C         28.21505        20.40750        -2.05919
C         27.06672        21.12496        -2.73056
C         28.33044        23.39918        -2.49621
C         27.15126        22.62030        -2.96874
C         28.32332        24.79120        -2.37906
C         27.08453        25.56260        -2.58852
C         28.22793        27.80365        -2.86133
C         27.03838        26.94540        -2.56711
C         28.23086        29.22534        -2.35364
C         26.97300        29.86976        -2.21341
C         28.25659        32.05433        -1.97478
C         26.93890        31.38318        -2.34061
C         28.27325        33.50819        -1.73331
C         27.00023        34.22069        -1.38477
C         28.31721        36.30270        -0.99093
C         27.08047        35.57262        -0.77243
C         28.66460         9.03295         4.59494
C         27.52468         9.61823         3.94872
C         29.02108        11.65232         3.49155
C         27.63896        11.04682         3.45696
C         29.31999        12.77115         2.75359
C         28.24996        13.38261         1.86628
C         29.74579        15.33342         1.50739
C         28.78871        14.38087         0.81199
C         29.83874        16.72380         1.07950
C         28.80640        17.30459         0.15967
C         30.28852        19.26967        -0.34263
C         29.06774        18.60729        -0.53176
C         30.38210        20.73510        -0.70348
C         29.49857        21.15377        -1.87501
C         30.82693        23.37037        -1.86714
C         29.57914        22.61920        -2.27298
C         30.75312        24.83603        -1.75146
C         29.54468        25.48594        -1.97395
C         30.62680        27.73816        -2.25445
C         29.57076        26.95322        -1.65568
C         30.71723        29.22313        -1.89993
C         29.42923        29.93667        -2.25214
C         30.75530        32.01687        -1.85443
C         29.45042        31.35742        -2.00700
C         30.80209        33.43586        -1.40461
C         29.49142        34.13164        -1.07043
C         30.71678        36.34170        -1.56721
C         29.49004        35.64165        -1.24589
C         29.80676         9.73331         4.85578
C         31.26749        11.79863         4.58272
C         29.88590        11.22431         4.64578
C         31.54801        12.96085         3.86078
C         30.55465        13.49257         2.93580
C         32.12116        15.36538         2.37126
C         30.73203        14.76222         2.33237
C         32.22093        16.79811         1.96573
C         31.15200        17.45979         1.23925
C         32.46158        19.51783         0.92846
C         31.49782        18.56672         0.25562
C         32.78567        20.74433         0.24794
C         31.79488        21.30088        -0.80266
C         33.10015        23.42981        -0.80164
C         31.91820        22.70498        -1.13104
C         33.18880        24.82787        -1.21488
C         32.01271        25.50409        -1.48083
C         33.27023        27.70024        -1.95528
C         32.08943        26.99272        -1.20638
C         33.22676        29.20568        -1.88228
C         31.99538        29.89115        -2.45036
C         33.21749        32.06999        -1.99228
C         31.94478        31.36810        -2.10096
C         33.23584        33.55442        -2.29387
C         32.04206        34.24407        -1.65143
C         31.89836        35.71314        -1.78060
C         32.74934        13.69590         4.11262
C         34.07635        15.75721         3.91987
C         32.99433        14.97045         3.54553
C         34.11013        17.23765         3.62393
C         33.42212        17.54380         2.28884
C         34.33403        19.92433         2.62844
C         33.50314        18.96159         1.80256
C         34.77736        21.11149         1.73310
C         33.58811        21.77968         1.01094
C         35.03306        23.84615         0.72209
C         34.00035        22.95137         0.16058
C         35.60825        24.90519        -0.21367
C         34.48885        25.56206        -1.06461
C         35.54317        27.89809        -0.69600
C         34.52958        27.03609        -1.36148
C         35.47465        29.28539        -0.88946
C         34.33797        29.93263        -1.47904
C         34.34860        31.38104        -1.66531
C         35.45260        17.94986         3.66261
C         36.82428        19.97587         3.20905
C         35.56498        19.23529         3.21915
C         36.92816        21.29495         2.84818
C         35.65071        22.07247         2.57724
C         37.11736        24.18016         2.29373
C         35.84612        23.42670         1.89947
C         37.26272        25.49229         1.56328
C         36.46017        25.93155         0.53746
C         36.52214        27.29477         0.11009
C         38.20215        21.95478         2.62154
C         38.31346        23.25719         2.27371
O         26.68711        16.27370        -2.59218
O         15.43750        26.56130         3.76115
O         15.18056        21.15708        -1.60474
O         22.51485        22.46872        -1.01077
O         16.10929         9.29272        -3.63545
O         24.63001        29.84657        -3.63801
O         26.83723         9.97915         1.29263
O         13.20088        24.47951         0.92679
O         27.52849        34.24669        -2.75126
O         36.53261        24.24810        -1.02717
O         29.39959        20.22842        -2.96228
O         20.96724        27.36934        -2.14815
O         12.53712        19.03741        -1.54823
O         35.07569        26.07103        -2.31241
O         21.68324        15.79176        -4.41329
O         25.61554        19.12493        -0.66720
O         30.03897        17.69755         2.17599
O         21.52507        30.44766         2.16319
O         25.03986        13.41297         1.31624
O         31.85520        27.27611         0.01618
O         32.96275        20.52122        -1.20471
O         16.23141        19.35258         0.85720
O         26.22998        24.31671        -4.41713
O         17.12927        33.52311         2.06889
O         17.77083        24.11270         2.24910
O         10.44235        20.64281         0.24969
O         23.23009        16.78175        -1.09938
O         26.10737        32.25417        -0.15734
O         22.06410        25.34346        -3.52742
O         23.36549        11.52070         1.92940
O         20.37785        26.39470         1.46476
O         17.62627        14.15565        -4.58581
O         16.12371        18.89198        -3.38331
O         34.66523        24.30025         2.11864
O         17.56211        11.65629        -4.25195
O         21.41529        11.42974        -2.96337
O         31.77861        33.68928        -0.31853
O         27.47754        21.64839        -4.02057
O         27.53550        17.30847         0.90943
O         30.64278        22.85297        -3.24498
O         24.71314        22.46716        -5.16704
O         14.09443        13.32886        -3.99148
O         28.70531        27.66618        -4.03168
O         15.42759        30.96689         1.66400
O         10.77749        21.19818         3.98095
O         14.73664        26.52067         0.11133
O         11.93771        17.66668         1.76004
O         17.51763        30.10581         0.23981
O         34.31649        17.89266         1.15507
O         18.63865        16.48665        -4.59424
O         13.19410        23.19405         4.04398
H         12.76056        22.50739         4.59878
O         20.44533        12.84809        -0.16426
H         19.82892        13.58111        -0.36421
O         14.23774        27.86008         0.35656
H         14.71740        28.40410        -0.31588
O         32.77649        14.70784         1.20967
H         33.63609        15.15447         1.04602
O         33.20921        33.74875        -3.71725
H         32.47274        33.22373        -4.09361
O         24.74043        11.94477        -2.02189
H         24.34038        12.29532        -2.85379
O         36.93413        24.57107         3.68671
H         36.10236        25.09120         3.72849
O         24.41284        26.06992        -4.59522
H         24.91695        25.42247        -5.14549
O         28.13500        11.72332         0.11156
H         27.76007        10.82174        -0.04233
O         21.98598         7.83662        -0.24912
H         21.84528         7.91407        -1.21661
O         20.96532        18.17853        -1.41817
H         21.87341        18.24324        -1.03890
O         23.38511        13.94160        -3.47567
H         22.75380        14.32294        -4.14213
O         35.64431        20.60506         0.70579
H         35.21916        19.83854         0.26383
O         32.00481        29.74711        -3.90305
H         32.92927        29.59905        -4.19684
O         18.08487        10.92443        -0.09060
H         18.50650        10.84020         0.79128
O         33.23156        27.36115        -3.35119
H         33.86630        26.60681        -3.47678
O         23.15834        20.44475        -5.03721
H         23.74134        21.18944        -5.38832
O         20.89707         9.74966         2.65473
H         21.39795        10.59395         2.66123
O         29.26068        33.87772         0.34558
H         30.13693        33.95072         0.78924
O         26.84049        11.83209         4.39190
H         27.38402        11.92163         5.21294
O         11.55811        15.23383         0.68354
H         11.77458        16.03595         1.26533
O         29.80313        21.48112         0.42247
H         30.27920        21.23362         1.24609
O         33.45081        20.34613         3.68848
H         33.89463        21.10176         4.15525
O         22.29510        29.27032        -2.97383
H         22.87943        29.31594        -3.77252
O         26.70438        31.64151        -3.74805
H         25.99728        31.00038        -4.03546
O         23.89804        34.58945        -1.91281
H         23.73811        33.81922        -2.51768
O         19.39817        18.91724        -4.59482
H         18.84614        18.29531        -5.12603
O         21.79968        18.22701        -4.98799
H         22.03517        19.13267        -5.30646
O         30.82632        27.40755        -3.54530
H         31.22433        28.16885        -4.04431
O         29.28976        27.22599        -0.33374
H         30.18341        27.24705         0.14906
O         23.54085        34.32032         2.99681
H         23.11169        33.47244         3.24492
O         19.23346        33.42609         5.11417
H         20.06176        33.04064         4.75579
O         33.26331        17.81552         4.66148
H         33.22399        18.79841         4.51372
O         13.96776        13.91206        -0.75902
H         13.35813        14.14124        -0.01604
O         18.81881         9.41379        -3.29291
H         18.36878         9.50412        -4.16347
O         23.98039        27.50291        -0.27184
H         24.14755        26.57136        -0.01581
O         22.46627        23.21563        -4.60540
H         23.13854        23.19559        -5.33984
O         30.81975        29.43433        -0.47836
H         29.96165        29.21313        -0.05602
O         32.17148        17.89377        -0.84933
H         32.60141        18.59616        -1.39496
O         27.37585        14.12959         2.73409
H         27.82564        14.95450         3.01333
O         29.64437        13.77927        -0.18350
H         29.22863        12.94029        -0.49765
O         32.65374        22.31407         1.99193
H         33.04330        23.15746         2.32812
O         29.23926        11.82359         5.86262
H         29.51995        12.76389         5.90479
O         17.69666        21.66629         1.80196
H         17.39827        21.97497         2.68512
O         18.22710        23.78745        -1.88048
H         17.98860        23.23474        -2.65551
O         35.04510        22.36190         3.86364
H         34.64428        23.25810         3.81003
O         23.27998         9.95605        -1.34882
H         22.92248        10.27452        -2.21352
O          9.86196        18.54900         3.16269
H         10.71908        18.12974         2.80943
O         20.03665        23.22825         1.23164
H         19.38918        22.69122         1.75033
O         23.82363        32.06675        -2.93574
H         23.95801        31.44729        -3.70644
H          8.11592        17.80797         1.29625
H          7.20447        19.84174         2.64816
H          7.53703        22.01801         3.68084
H          9.06055        23.90662         4.56106
H          9.97674        14.07804        -1.49734
H          8.95706        16.28312        -0.73431
H         10.61839        25.90747         5.09306
H         12.05451        27.93373         5.34151
H         11.94237         9.77346        -2.11922
H         10.92789        12.06649        -2.12763
H         13.27793        30.03673         5.40684
H         14.33878        32.19917         5.39480
H         15.17353         6.53968        -1.04443
H         13.11209         7.64675        -1.81322
H         17.43466        35.75729         5.09510
H         15.31660        34.54486         5.27252
H         17.34617         6.94207         0.02713
H         19.58831        36.14372         3.75714
H         19.60617         7.10898         0.77154
H         21.69668        36.45407         2.56986
H         21.48884         7.77789         2.34621
H         24.18304        36.60837         1.71076
H         23.70437         8.03316         3.52067
H         26.06042        37.08654         0.33680
H         26.12781         8.01430         4.34456
H         28.29859        37.40313        -0.95072
H         28.61743         7.96288         4.85218
H         30.65874        37.43568        -1.67562
H         30.66845         9.22136         5.30976
H         32.01010        11.42895         5.30688
H         34.18428        34.01390        -1.91983
H         32.78680        36.28972        -2.07630
H         33.42536        13.32963         4.90110
H         34.77999        15.36366         4.67161
H         36.27867        29.91796        -0.48340
H         35.30450        31.91153        -1.54213
H         36.32283        17.43923         4.10481
H         37.74014        19.41283         3.45043
H         37.88159        26.24033         2.08937
H         37.33733        27.92272         0.50481
H         39.10767        21.33065         2.67590
H         39.30221        23.69049         2.06678
