         291
 CSIRO Nanostructure Databank - Neutral Graphene Oxide Data Set
C          2.07096         1.87187         2.61036
C          1.88036         3.29848         2.49531
C          3.11396         1.28211         1.98971
C          2.58022         4.05756         1.59620
C          1.76830         6.36580         2.27437
C          1.70839         7.77260         1.94908
C          2.18622         5.43844         1.36458
C          2.51868         8.43922         1.06562
C          1.17455        10.62299         0.75447
C          1.14946        11.90610         0.37004
C          2.45280         9.93614         1.06774
C          2.37555        12.69484        -0.03777
C          1.12893        14.98951        -0.12875
C          1.20887        16.33790        -0.26309
C          2.30244        14.16693         0.41073
C          2.38017        17.08870         0.19741
C          2.43894        18.51939         0.33698
C          4.18172         2.14651         1.37095
C          3.65552         3.43351         0.73939
C          5.12191         1.37372         0.50094
C          4.60870         4.15069        -0.22698
C          3.56812         6.43783        -0.08472
C          3.62198         7.84832         0.28800
C          4.65283         5.64952        -0.33643
C          4.79562         8.53612         0.10042
C          3.72785        10.68615         0.90063
C          3.70310        12.09282         0.41719
C          5.01993         9.86365         0.82217
C          4.89110        12.78859         0.34372
C          3.57278        14.91514        -0.08586
C          3.46943        16.28016         0.56150
C          4.91820        14.24197         0.13588
C          5.07332        17.34785        -0.62518
C          3.60611        19.25477         0.27233
C          4.91514        18.71742        -0.01695
C          5.95620         1.96780        -0.36762
C          5.85708         3.41655        -0.79145
C          7.19144         1.20185        -0.72954
C          7.20995         4.13828        -0.62044
C          5.90149         6.33165        -0.87295
C          5.93780         7.86142        -0.57549
C          7.19797         5.64025        -0.37777
C          7.25856         8.57339        -0.55704
C          6.19241        10.68424         0.34483
C          6.16032        12.05063         0.37044
C          7.47916         9.91911         0.13261
C          7.44412        12.81740         0.34382
C          6.08383        14.96441         0.09028
C          6.10712        16.46850         0.03807
C          7.40407        14.33735         0.52704
C          7.39110        17.26877         0.06548
C          6.10090        19.41725         0.06669
C          7.37362        18.74686        -0.15433
C          8.45082         1.97700        -0.85143
C          8.37835         3.46703        -0.81480
C          9.72415         1.33300        -1.24316
C          9.69229         4.09582        -1.26899
C          8.42505         6.35609        -0.93982
C          8.52074         7.81120        -0.72601
C          9.70254         5.61334        -1.21924
C          9.73108         8.47152        -0.82407
C          8.42587        10.73477        -0.77435
C          8.66914        12.10605        -0.15378
C          9.75553         9.96698        -1.13137
C          9.87263        12.86334        -0.58909
C          8.60057        15.02479        -0.16283
C          8.62969        16.51604        -0.28488
C          9.91192        14.30429        -0.22569
C          9.87743        17.27763        -0.40615
C          8.57061        19.39807        -0.30463
C          9.84951        18.69416        -0.39563
C         10.91677         1.96678        -1.00302
C         10.87784         3.42352        -0.56888
C         12.17613         1.29338        -1.10315
C         12.18944         4.14657        -0.80526
C         10.98203         6.33086        -1.00176
C         10.96605         7.72895        -0.88530
C         12.18995         5.55459        -0.87426
C         12.23605         8.43207        -0.43925
C         11.00822        10.71561        -0.68563
C         10.99786        12.18788        -0.94381
C         12.28763         9.97145        -0.58896
C         12.25903        12.89325        -1.29726
C         11.17453        15.06933        -0.41234
C         11.21261        16.60308        -0.24703
C         12.22426        14.43286        -1.32574
C         12.32494        17.31686        -1.02633
C         11.04110        19.42901        -0.48985
C         12.37118        18.84732        -0.86879
C         13.38167         1.96295        -0.92876
C         13.38821         3.38197        -0.81882
C         14.66958         1.16205        -0.99343
C         14.66979         4.06006        -0.53649
C         13.48328         6.27450        -0.98280
C         13.49106         7.76565        -0.96294
C         14.71704         5.54775        -0.55947
C         14.76657         8.47030        -0.62393
C         13.52534        10.55515        -1.29179
C         13.54014        12.10723        -1.40051
C         14.84343         9.93011        -0.87560
C         14.91167        12.81971        -1.40851
C         13.57741        15.08201        -0.99460
C         13.61762        16.58348        -1.16911
C         14.84638        14.30526        -0.96895
C         14.92048        17.38814        -1.01168
C         13.48082        19.19786         0.07856
C         14.72199        18.55835        -0.02749
C         15.94533         1.87489        -0.55312
C         16.00393         3.37297        -0.75234
C         17.07931         1.21187        -0.25782
C         17.11056         4.04373         0.10830
C         16.04595         6.22342        -0.51251
C         16.02725         7.70970        -0.46076
C         17.16467         5.53810        -0.16097
C         17.32914         8.41682        -0.64551
C         16.01604        10.60307        -0.81089
C         15.93810        12.08332        -0.50956
C         17.38663         9.94325        -0.80261
C         17.31483        12.81580        -0.52917
C         16.18850        15.06397        -0.97106
C         16.10261        16.53106        -0.55928
C         17.13389        14.26705        -0.01696
C         17.19494        17.14749        -0.04339
C         15.85596        19.09922         0.58081
C         17.20855        18.66025         0.08739
C         18.44995         1.85321        -0.17583
C         18.42430         3.36306        -0.13747
C         19.26939         1.32401         0.99255
C         19.67244         4.05801         0.09144
C         18.40050         6.24936         0.34839
C         18.51318         7.68140        -0.13783
C         19.74569         5.57682        -0.03923
C         19.70513         8.44932         0.30142
C         18.31410        10.55432         0.28432
C         18.43348        12.06019         0.16962
C         19.64967         9.81885         0.36622
C         19.60277        12.72293         0.51686
C         18.43652        14.95845         0.23340
C         18.32663        16.39386         0.62851
C         19.59810        14.22426         0.78481
C         19.65283        17.10671         0.62067
C         18.37912        19.19702         0.85967
C         19.60607        18.51497         0.88918
C         20.33055         1.99429         1.47755
C         20.73152         3.31449         0.94925
C         21.67838         4.14384         1.69813
C         20.83783         6.28242         0.77400
C         20.84597         7.68024         0.80085
C         21.75868         5.49871         1.55484
C         21.84932         8.46333         1.51357
C         20.96181        10.56340         0.50615
C         20.82783        12.04676         0.76611
C         21.87298         9.81337         1.45454
C         22.00651        12.80856         1.02454
C         20.90491        14.91139         0.27825
C         20.87174        16.41493         0.56763
C         22.06631        14.17017         0.87392
C         22.06359        17.14862         0.73707
C         20.83270        19.19761         1.15360
C         22.03453        18.51827         1.04858
O          2.30117         5.84813         0.03037
O          3.39610         3.46169        -0.68270
O         10.89137        14.45861         0.87827
O         14.10153        14.56221         0.26569
O         18.22508         7.75883        -1.58649
O          6.41130         8.60887        -1.75748
O         13.53716         7.07339        -2.22858
O         14.51222         4.82375         0.72201
O         15.28577         8.16890         0.72668
O          9.91033         9.95714        -2.53918
O          8.31899        15.60864        -1.46542
O          4.74907        17.15918        -1.80187
O         20.85291         3.40186        -0.52025
O          3.11064        10.55309         2.25010
O          6.66535        16.97881         1.29682
O         12.78748        16.93232        -2.33306
O          8.84159         6.07636        -2.32379
O         11.71121        10.56318         0.61941
O         12.79041        12.45611        -2.61148
O          8.42146        12.22518         1.28206
O         15.39240        12.08073         0.83943
H         15.94117        11.45397         1.37419
O          2.36822        12.65986        -1.48391
H          2.50908        11.73605        -1.77582
O          4.16056        16.49804         1.69765
H          3.96735        17.38952         2.05589
O         10.61063         3.49893         0.85469
H         11.32207         3.01854         1.32762
O         21.61691        10.48819        -0.81160
H         21.69021         9.53865        -1.04811
O         20.91010        14.72310        -1.15563
H         21.78516        14.98849        -1.50575
O         11.63309        16.86464         1.12834
H         11.28751        16.11855         1.67576
O         17.79781        12.92556        -1.87483
H         17.88050        12.01975        -2.25997
O         12.75467        19.40995        -2.17478
H         12.17185        19.00169        -2.85225
O         16.81776         3.88226         1.53450
H         15.90053         4.23997         1.66841
O         11.76809        14.76988        -2.64455
H         12.14859        14.12036        -3.27747
O          5.84633         6.17433        -2.30814
H          6.23477         6.99645        -2.70119
O          2.22509        14.13064         1.84139
H          2.10138        15.04138         2.17893
O          9.81415         3.72659        -2.66491
H          9.27273         4.37275        -3.17579
O          8.06413         1.28289         0.43489
O         12.29701         8.14978         0.98703
H         11.87378         8.91553         1.44754
O         13.38358        10.03852        -2.64054
H         12.54216        10.38533        -3.01809
O         19.14085         1.42984        -1.39738
H         20.00908         1.90405        -1.38958
O          5.00754         2.63769         2.48731
H          5.46157         1.86576         2.88647
O         14.46583        -0.05743        -0.28702
H         15.24543        -0.63283        -0.42007
O          3.35089        15.00454        -1.50103
H          3.99890        15.62767        -1.91215
O          5.68486         3.39219        -2.23279
H          5.59488         4.32933        -2.53783
O         17.39282        19.23577        -1.25272
H         16.67364        18.86984        -1.83406
O          8.11476         9.63821         1.39405
H          7.40146         9.56091         2.07007
O          7.73539        10.98458        -2.00068
H          8.34716        10.61511        -2.70728
O          7.21942         5.83996         1.05894
H          7.88141         5.23452         1.45534
O          5.40355         9.48213         2.18272
H          4.62377         9.71166         2.75280
O         17.97186        10.22315        -2.09034
H         18.40331         9.38665        -2.39909
O          7.53411        14.58262         1.94370
H          8.06967        13.84232         2.31323
O         17.91793        16.40151         2.06728
H         17.13520        15.78913         2.11448
O         19.99581         5.83404        -1.43562
H         20.69179         5.20311        -1.72223
O         16.53906        14.28773         1.31227
H         15.73677        13.69837         1.32105
O         19.62171        14.33837         2.24162
H         19.08252        15.13473         2.49215
O         17.60368        10.31886         1.54701
H         18.19120        10.58704         2.28559
O         16.33051         3.61072        -2.14370
H         17.19899         3.18943        -2.32585
O         16.72374        15.10507        -2.29948
H         16.31451        15.85744        -2.77684
O         18.30407         6.24271         1.78904
H         17.83107         5.41410         2.05418
O         15.39024        12.75272        -2.75235
H         14.61457        12.71903        -3.35412
O         15.22836        17.95646        -2.31197
H         14.43561        18.50613        -2.55566
H          1.32254         1.28240         3.15868
H          1.05441         3.76159         3.05547
H          3.26302         0.19250         2.02806
H          1.53383         6.06614         3.30582
H          1.05169         8.39256         2.58128
H          0.23827        10.06949         0.92616
H          0.17885        12.39049         0.18182
H          0.19264        14.47420        -0.38773
H          0.34110        16.90957        -0.62462
H          1.48714        19.06961         0.40686
H          5.30241         0.32074         0.77560
H          3.54126        20.34261         0.43085
H          7.09613         0.18241        -1.16488
H          6.10430        20.48043         0.35418
H          9.70726         0.26351        -1.50610
H          8.58911        20.49647        -0.36542
H         12.18385         0.20728        -1.27751
H         10.97695        20.52826        -0.48234
H         14.83464         0.91670        -2.09238
H         13.34370        20.00192         0.81647
H         17.06958         0.11094        -0.18757
H         15.75830        19.95524         1.26605
H         18.99431         0.34638         1.41763
H         18.36377        20.26863         1.11500
H         20.89926         1.59600         2.33248
H         22.31204         3.64377         2.44655
H         22.50703         6.02839         2.16158
H         22.59035         7.94534         2.13892
H         22.64327        10.36629         2.01180
H         22.91837        12.27459         1.33328
H         22.98462        14.70164         1.16578
H         23.03808        16.64572         0.66092
H         20.81472        20.27223         1.38371
H         22.98188        19.05143         1.21048
