         260
 CSIRO Nanostructure Databank - Neutral Graphene Oxide Data Set
C         31.99621        32.14021        -3.92655
C         31.95719        33.39130        -3.75920
C         32.21227        36.61658        -3.62262
C         32.16928        37.82816        -3.35008
C         31.74623        40.83863        -2.38043
C         31.40596        41.95484        -1.96397
C         33.39886        28.98433        -2.32474
C         32.73130        29.74860        -3.06643
C         33.82321        31.76198        -2.41191
C         32.70850        31.13820        -3.25253
C         33.91802        33.29021        -2.34058
C         33.02605        34.20750        -3.17227
C         33.80545        36.25485        -1.91758
C         32.97820        35.65591        -2.85544
C         34.10554        37.75465        -1.92889
C         32.94689        38.61393        -2.44875
C         33.74195        40.57110        -1.12745
C         32.78255        39.90548        -2.06966
C         33.36122        41.88627        -0.45638
C         31.87758        42.44295        -0.61570
C         32.83447        44.33854         0.50768
C         32.05020        43.90240        -0.33157
C         35.57457        27.20171        -0.55226
C         35.19937        28.60334        -0.35089
C         34.22006        29.41028        -1.17666
C         35.29081        31.55766        -0.26652
C         34.52539        30.89881        -1.37603
C         35.29215        33.04530        -0.18458
C         34.42535        33.90534        -1.06299
C         35.25631        36.03294         0.26872
C         34.40078        35.40330        -0.85595
C         35.62821        37.51276         0.11089
C         34.79481        38.34827        -0.70376
C         35.75200        40.40384         0.38751
C         34.76518        39.72394        -0.48325
C         35.42805        41.76263         0.91444
C         34.23466        42.37973         0.66803
C         35.29005        44.60018         0.92676
C         34.01722        43.82605         1.26250
C         35.41703        46.01475         1.38001
C         37.82555        27.05229         0.40867
C         36.67814        26.65673        -0.42640
C         37.69642        28.55531         0.67238
C         36.40082        29.29727         0.34758
C         37.81523        31.49506         0.29740
C         36.44526        30.78292         0.33783
C         37.57741        32.86681         0.95837
C         36.51555        33.71786         0.33194
C         37.44957        35.75410         1.51762
C         36.51225        35.19735         0.51394
C         37.31212        37.13615         1.83969
C         36.57087        38.05155         1.02274
C         37.68656        40.17377         2.21623
C         36.81382        39.53856         1.09414
C         37.74170        41.72331         2.08926
C         36.40188        42.44666         1.86658
C         37.73568        44.63682         1.68119
C         36.56919        43.93348         1.50979
C         37.78076        46.15323         1.77002
C         36.43989        46.69447         1.51011
C         40.81264        25.04965        -0.80621
C         39.66551        25.44765        -0.56982
C         40.35997        27.18894         0.96123
C         39.16963        26.39413         0.42631
C         40.12404        28.60577         1.44699
C         38.92677        29.35005         0.97758
C         40.14320        31.48623         1.32999
C         38.93730        30.73066         1.00859
C         40.08422        32.97927         1.30884
C         38.72237        33.56641         1.59123
C         40.47458        36.03804         2.24177
C         38.50070        34.97234         1.98495
C         40.39331        37.44393         2.11387
C         39.22847        38.20980         2.43407
C         40.36584        40.31847         2.11861
C         39.09389        39.56068         2.19018
C         40.36601        41.80740         2.00046
C         39.03208        42.50941         2.02326
C         40.19198        44.59262         1.29151
C         39.02827        43.95570         1.66471
C         40.39493        46.10914         1.31442
C         39.06652        46.87525         1.56641
C         40.08213        48.70949         0.25394
C         39.25724        48.21969         1.02491
C         43.34818        25.21448        -0.28363
C         42.05954        25.87915        -0.65426
C         42.81822        27.40207         1.32291
C         41.75610        26.82195         0.57973
C         42.66039        28.68969         1.86518
C         41.36963        29.40790         1.78148
C         42.62147        31.61751         1.51820
C         41.36579        30.86821         1.56370
C         42.63356        32.98827         1.41830
C         41.37034        33.77220         1.38312
C         42.61722        35.88812         1.05230
C         41.49554        35.22027         1.76131
C         42.54493        37.35312         0.76201
C         41.31641        38.17036         1.15433
C         42.82185        40.30943         1.29946
C         41.60190        39.55233         1.71555
C         42.73486        41.77994         1.11594
C         41.53482        42.47870         1.38733
C         42.52178        44.50313         0.44040
C         41.42074        43.84137         1.04410
C         42.28473        45.78123        -0.21376
C         41.20115        46.57672         0.10295
C         42.60998        48.45990         0.50489
C         41.34302        48.07746        -0.25015
C         44.24346        25.70233         0.41606
C         45.28513        27.41886         2.03046
C         44.11359        26.56409         1.63470
C         45.09134        28.71987         2.40721
C         43.83759        29.46595         2.27055
C         45.17760        31.39344         1.01544
C         43.92835        30.93014         1.84106
C         44.97929        32.87724         0.59557
C         43.97521        33.70902         1.39476
C         44.98995        35.80511         0.39005
C         43.90918        35.16173         0.91700
C         45.07352        37.30258         0.37481
C         43.80259        38.09821         0.40083
C         45.24008        40.26738         0.45084
C         43.91155        39.57440         0.57198
C         45.13535        41.75944         0.30613
C         43.85385        42.47291         0.59771
C         45.07914        44.59374         0.16470
C         43.78366        43.86330         0.37865
C         45.36304        46.02918         0.62536
C         44.46036        46.88284         1.45058
C         43.61245        47.86836         0.94901
C         47.73883        27.70143         2.16950
C         46.67476        27.07073         2.08080
C         48.09977        29.07382         1.87318
C         47.01823        29.94591         2.15673
C         47.66959        31.85603         0.77542
C         46.67364        31.16196         1.44494
C         47.34856        32.74883        -0.42695
C         46.08074        33.56492        -0.14568
C         47.35760        35.76349        -0.69122
C         46.11693        35.06498        -0.22850
C         47.54688        37.23786        -0.42698
C         46.35097        38.02536         0.03924
C         47.39454        40.15222        -0.80271
C         46.35243        39.50445        -0.20748
C         47.26592        41.61407        -1.14403
C         46.06691        42.39854        -0.68402
C         47.14605        44.61197        -1.53827
C         46.00036        43.90347        -0.83435
C         47.18920        45.96935        -0.97863
C         46.39647        46.60546        -0.27235
C         50.50102        29.47381         0.94897
C         49.24403        29.50282         1.20586
C         50.16243        31.93876         0.16576
C         49.09861        31.83538         1.24520
C         49.82021        32.81175        -1.02345
C         48.55859        33.58811        -0.84252
C         49.78447        35.65415        -1.49239
C         48.56424        34.93905        -1.00034
C         49.60015        37.09711        -1.96964
C         48.64623        37.94275        -1.15800
C         49.77275        40.09790        -1.83936
C         48.42673        39.39033        -1.62821
C         49.77738        41.62466        -1.90318
C         48.50422        42.39102        -1.51300
C         49.53114        44.29100        -2.41994
C         48.34816        43.83851        -1.91286
C         51.72346        30.02716         0.92263
C         52.38879        32.00359        -0.60679
C         51.63377        31.51562         0.57024
C         52.14635        32.63191        -1.63083
C         50.88258        33.33230        -2.04862
C         51.77659        35.66193        -2.87654
C         50.98698        34.83634        -1.95087
C         51.79876        36.89184        -3.00262
C         50.66817        37.80819        -2.77650
C         51.69776        40.16501        -3.33633
C         50.85174        39.27320        -2.53061
C         51.76818        41.40470        -3.26174
C         50.83016        42.34557        -2.74682
C         50.60228        43.69106        -2.81551
O         45.70993        41.14587         1.50815
O         45.82842        44.89488         1.40892
O         49.37735        31.95110         2.44566
O         37.11227        40.19896        -0.15684
O         37.73116        32.79476         2.38786
O         50.95252        35.41152        -0.63257
O         33.35005        34.52927        -0.28538
O         46.26843        35.52782        -1.64045
O         46.00005        37.73130         1.43733
O         49.60283        42.18280        -0.56784
O         43.85324        30.58472         3.23964
O         38.06809        37.54673         2.90598
O         38.14552        31.62721        -1.03454
O         49.65547        31.37465        -1.08068
O         39.68068        26.13150         1.74811
O         33.90614        28.97300         0.15132
O         49.45585        37.32571        -3.40519
O         35.15539        37.90575        -3.00919
O         40.64633        33.58046         0.09702
O         42.68716        39.73475         2.65273
O         46.09108        29.45756         3.08348
O         40.64332        41.16525         3.28786
O         46.09755        41.78138        -2.01112
O         34.16252        41.87049        -1.66557
O         48.76079        37.66559         0.25890
O         42.20416        36.41019        -0.30333
O         44.89685        33.04244        -0.83835
O         45.89250        44.34392        -2.21788
O         34.38907        33.84983        -3.58933
O         34.51620        32.25014         0.75661
O         43.57439        39.00159        -0.73580
O         37.43003        27.52503         1.69793
O         38.33655        42.28870         3.30254
O         37.10567        34.61660        -0.67736
O         38.55142        46.66084         2.89364
O         35.12798        31.15334        -2.67944
O         39.38869        35.43384         2.93394
O         40.45636        28.90082         2.83338
O         36.03347        30.08215         1.53026
O         50.90282        39.56933        -1.10583
O         47.86124        39.35233        -2.96113
H         46.94171        39.01389        -2.93218
O         37.03815        39.88808         3.45910
H         37.56020        40.31682         4.17102
O         41.57088        48.23964        -1.63467
H         41.62307        49.19441        -1.84839
O         44.45363        46.61351         2.75256
H         45.03927        45.83571         2.91904
O         43.17699        46.12556        -1.16724
H         42.86669        46.94928        -1.62099
O         50.44628        33.00407        -3.34838
H         50.37032        32.02865        -3.41103
O         40.57635        38.43600        -0.06661
H         40.72497        37.66287        -0.66134
O         35.76381        42.43261         3.16060
H         36.44370        42.70209         3.81920
O         33.78096        43.84322         2.64466
H         32.97256        43.33229         2.84874
O         47.04786        31.86202        -1.53286
H         46.64738        32.39999        -2.24992
O         45.03465        30.56662        -0.15350
H         45.61810        30.94153        -0.86734
O         42.23747        26.70688        -1.77574
H         42.56053        26.16960        -2.52777
O         34.48227        35.99878         1.48689
H         33.79739        35.29327         1.38762
O         43.80011        25.75350         2.75647
H         43.07017        25.14297         2.52199
O         36.26713        37.06144        -2.59057
H         36.52419        36.61720        -3.43571
O         35.41603        44.54943        -0.48896
H         36.09923        45.18445        -0.78572
O         44.51230        33.75053         2.74168
H         43.82955        34.09689         3.35359
O         31.09431        41.85408         0.38967
H         30.17809        42.19545         0.33216
O         41.21440        46.35381         2.48510
H         40.62066        46.33526         3.26938
O         51.99531        32.19122         1.75120
H         51.26615        32.07319         2.41091
