         429
 CSIRO Nanostructure Databank - Neutral Graphene Oxide Data Set
C          2.84469         6.70284        -6.73127
C          1.95089         7.68249        -7.11490
C          2.21233         8.84401        -4.99039
C          1.60671         8.73541        -6.23717
C          1.74795         9.79753        -3.89988
C          0.92798        10.94855        -4.40920
C          1.81010        12.44484        -2.68413
C          0.92020        12.14554        -3.78727
C          1.66406        13.72452        -1.97613
C          0.67971        14.75454        -2.39212
C          2.01690        16.65845        -1.41802
C          0.79236        16.04688        -2.04825
C          1.76564        17.35690        -0.07588
C          0.48186        17.54814         0.41273
C          1.40441        18.81976         2.25645
C          0.31352        18.22101         1.62986
C          1.29951        20.72623         3.63371
C          0.18225        21.46433         3.87963
C          1.43655        23.53675         4.21490
C          0.24785        22.87703         4.13138
C          1.52195        25.02162         4.60636
C          0.22643        25.74977         4.35695
C          1.40042        27.71193         3.45210
C          0.17359        26.98575         3.85061
C          1.31364        29.03928         2.73012
C         -0.00132        29.63320         2.44163
C          1.01517        31.23639         0.89818
C         -0.12993        30.65637         1.56907
C          0.86520        32.44457         0.13167
C         -0.39712        33.08335        -0.04811
C          0.62353        34.91698        -1.28218
C         -0.51614        34.27358        -0.73665
C          0.52431        36.16815        -1.96996
C          4.39263         5.76561        -5.03783
C          3.47528         6.76435        -5.45525
C          3.84029         8.00786        -3.33815
C          3.18775         7.88687        -4.61275
C          3.84246         9.29522        -2.63933
C          2.88535        10.23254        -2.98057
C          3.99341        12.00310        -1.59522
C          2.83947        11.54916        -2.36172
C          4.12195        13.36737        -1.23974
C          2.95222        14.25821        -1.26513
C          4.42850        16.28530        -0.74813
C          3.12998        15.68575        -1.18766
C          4.20456        17.34494         0.33419
C          2.89748        17.85268         0.64268
C          3.89901        19.44934         2.30514
C          2.73416        18.74904         1.75330
C          3.88244        20.65447         3.10441
C          2.67129        21.26658         3.72294
C          3.96489        23.47945         3.92471
C          2.70011        22.76599         4.12847
C          4.03453        24.98672         4.14043
C          2.70936        25.67887         3.92166
C          3.80386        27.52551         2.67107
C          2.65064        26.91418         3.33645
C          3.65249        28.75761         1.92312
C          2.45608        29.45662         1.88061
C          3.42401        31.18566         0.37324
C          2.28167        30.62703         1.03963
C          3.29464        32.41567        -0.33223
C          2.01843        33.05293        -0.43956
C          3.05452        34.93617        -1.66001
C          1.89768        34.29781        -1.13416
C          2.94169        36.20437        -2.32428
C          1.63874        36.79073        -2.46971
C          6.09751         4.98144        -3.40963
C          4.98490         5.82445        -3.76071
C          6.17729         7.49081        -1.68781
C          4.54147         6.88337        -2.90471
C          6.18376         8.85822        -1.62663
C          4.87819         9.63545        -1.54293
C          6.35442        11.67671        -1.06695
C          5.11140        11.13589        -1.43720
C          6.47306        13.03052        -0.62682
C          5.34099        13.88014        -0.73194
C          6.57586        15.69806         0.34288
C          5.44916        15.25386        -0.32107
C          6.59818        17.09526         0.83445
C          5.29213        17.77568         1.06553
C          6.37035        19.46321         2.50554
C          5.17717        18.90317         1.96216
C          6.36618        20.71528         3.12402
C          5.10472        21.35546         3.34797
C          6.41062        23.50912         3.94177
C          5.11266        22.75256         3.75033
C          6.34078        24.86718         3.26868
C          5.17403        25.57017         3.32754
C          6.24143        27.45943         2.13907
C          5.03438        26.85796         2.67371
C          6.19691        28.91911         1.69566
C          4.80418        29.14526         1.02044
C          5.78714        31.05833        -0.25841
C          4.68425        30.51873         0.40625
C          5.69368        32.33249        -0.90882
C          4.44420        33.01613        -0.92828
C          5.48725        34.97127        -2.01343
C          4.32852        34.30859        -1.53785
C          5.39042        36.29586        -2.62014
C          4.08864        36.85248        -2.80005
C          8.41479         4.58620        -2.66245
C          7.22594         5.37798        -2.63415
C          8.57957         7.22557        -1.67219
C          7.31325         6.67221        -2.00960
C          8.64735         8.60417        -1.32011
C          7.53065         9.50675        -1.81225
C          8.85381        11.40281        -0.54406
C          7.60811        10.91582        -1.24935
C          8.78283        12.66435         0.20925
C          7.66968        13.51309         0.02539
C          8.84186        15.27380         1.31005
C          7.70029        14.83418         0.58279
C          8.91907        16.60323         1.86835
C          7.78651        17.52268         1.61795
C          8.88111        19.23337         3.10027
C          7.60717        18.65513         2.55723
C          8.92140        20.68287         3.32421
C          7.64596        21.39394         3.39662
C          8.90730        23.52865         3.60607
C          7.65303        22.75424         3.57861
C          8.86278        24.95516         3.10977
C          7.53358        25.35568         2.47834
C          8.71726        27.62376         1.94404
C          7.44575        26.82272         2.16595
C          8.52579        28.62465         0.80987
C          7.30718        29.20591         0.68018
C          8.27581        30.96509        -0.89415
C          7.06408        30.29340        -0.30283
C          8.14694        32.34904        -1.39883
C          6.83862        32.96753        -1.49770
C          7.89328        34.98530        -2.54141
C          6.72582        34.29510        -1.96613
C          7.88497        36.49770        -2.58141
C          6.53220        36.99684        -3.00572
C         10.84715         4.27858        -2.18436
C          9.65766         5.05241        -2.16343
C         10.95593         6.93968        -1.18102
C          9.73636         6.40276        -1.66473
C         10.94057         8.23087        -0.61864
C          9.81836         9.08785        -0.72202
C         10.98361        10.85258         0.58236
C          9.93723        10.45343        -0.22684
C         11.00936        12.16854         1.15541
C          9.89990        13.06186         0.98505
C         11.05438        14.78925         2.31448
C          9.93964        14.38964         1.52079
C         11.17907        16.18097         2.83055
C         10.02738        17.07042         2.56351
C         11.34194        19.12851         3.04998
C         10.13624        18.48021         2.90287
C         11.38956        20.57764         3.15009
C         10.15345        21.31359         3.37986
C         11.46155        23.51746         3.21430
C         10.20907        22.78332         3.59776
C         11.38512        24.89175         2.64910
C         10.08951        25.58455         2.54207
C         11.15867        27.22429         1.02007
C          9.95657        26.75463         1.83353
C         11.04354        28.63630         0.49494
C          9.69758        29.01361        -0.08597
C         10.72028        31.25264        -0.65021
C          9.62402        30.47001        -0.51560
C         10.63591        32.67766        -1.13884
C          9.28953        33.04590        -1.70094
C         10.45726        35.08017        -2.69706
C          9.22474        34.31610        -2.41623
C         10.32256        36.42555        -3.25923
C          9.08937        37.05574        -3.29645
C         13.28420         4.03444        -1.74833
C         12.09646         4.80065        -1.74530
C         13.39361         6.69037        -0.82569
C         12.16847         6.15101        -1.24173
C         13.42109         8.04542        -0.25305
C         12.18041         8.82968        -0.09307
C         13.32368        10.33886         1.70406
C         11.98644         9.80434         1.05938
C         13.38918        11.85308         1.86465
C         12.13116        12.57874         1.91556
C         13.90051        14.74134         2.75554
C         12.01094        13.81438         2.60972
C         13.79298        16.17500         2.63114
C         12.55541        16.87188         3.05616
C         13.78560        19.08161         2.51644
C         12.65359        18.39471         3.24771
C         13.78517        20.48366         2.46711
C         12.60424        21.22562         2.88519
C         13.89194        23.39590         2.37012
C         12.70191        22.70211         2.96394
C         13.79337        24.83247         2.00990
C         12.53819        25.52111         2.19882
C         13.64438        27.66861         1.35263
C         12.39130        27.01269         1.89635
C         13.50217        28.90554         0.56594
C         12.16006        29.39503         0.28238
C         13.24310        31.27056        -1.02263
C         12.07885        30.83618        -0.14741
C         13.09160        32.34988        -2.01357
C         11.72290        33.02054        -2.16220
C         12.80587        34.96576        -3.41791
C         11.64762        34.40189        -2.70175
C         12.75569        36.41320        -3.75738
C         11.52102        37.06693        -3.72465
C         15.68424         3.76657        -1.18872
C         14.52105         4.56877        -1.30865
C         15.86019         6.52610        -0.50980
C         14.60450         5.93811        -0.87867
C         15.82480         7.89146         0.01909
C         14.62386         8.50766         0.45234
C         15.83793        10.36162         1.47878
C         14.60666         9.74540         1.12563
C         15.88576        11.78080         1.79260
C         14.62648        12.50241         1.94181
C         15.84291        14.60298         1.23395
C         14.75432        13.95009         2.03187
C         15.97394        16.08480         1.51564
C         14.84019        16.85009         2.01689
C         16.00676        18.94368         1.48913
C         14.88734        18.30752         1.99059
C         16.22354        20.40527         1.76017
C         14.93999        21.18783         1.92856
C         16.05194        23.25926         1.13204
C         14.97057        22.57116         1.78097
C         16.06060        24.66371         1.00147
C         14.91351        25.43317         1.43949
C         16.03094        27.51421         0.47693
C         14.92998        26.89321         1.22313
C         15.92165        28.86305         0.05173
C         14.62888        29.52339         0.02720
C         15.68103        31.38241        -1.30208
C         14.49728        30.74037        -0.77401
C         15.56611        32.60956        -2.05488
C         14.28919        33.06022        -2.47559
C         15.36701        35.04355        -3.69491
C         14.14349        34.24857        -3.33709
C         15.23422        36.49551        -3.97673
C         13.95342        37.09241        -4.07048
C         17.94697         3.38347        -0.33033
C         16.88117         4.29102        -0.68662
C         18.32365         6.12920         0.08935
C         17.02942         5.70284        -0.43309
C         18.74000         7.47668         0.16616
C         16.97417         8.67602         0.18931
C         18.36517        10.23363         1.57701
C         17.05040         9.74327         1.08354
C         18.43054        11.75203         1.88323
C         17.10566        12.45711         1.66637
C         18.31961        14.48481         0.98207
C         17.15286        13.86171         1.38362
C         18.25690        15.91699         0.47539
C         17.10869        16.70199         1.07864
C         18.34352        18.85733         0.42576
C         17.10587        18.16335         0.89167
C         18.37539        20.34415         0.45676
C         17.25650        21.03849         0.85151
C         18.39615        23.19917         0.03941
C         17.11873        22.46101         0.52395
C         18.42017        24.65626         0.19328
C         17.23018        25.35130         0.48912
C         18.40259        27.46779        -0.12193
C         17.21939        26.78186         0.29247
C         18.33294        28.85628        -0.45135
C         17.06568        29.51454        -0.47429
C         18.14341        31.53819        -1.41788
C         16.95554        30.82689        -1.05823
C         18.03397        32.84256        -2.00102
C         16.75967        33.31349        -2.40066
C         17.84933        35.45868        -3.19361
C         16.70506        34.53225        -3.23018
C         17.69013        36.77588        -3.70342
C         16.39555        37.26414        -4.08004
C         19.03978         3.79430         0.37645
C         20.35401         5.66884         1.38693
C         19.24949         5.19342         0.63709
C         20.53194         7.02536         1.66715
C         19.70757         7.98277         1.03959
C         20.87925        10.27027         1.35809
C         19.64779         9.44330         1.45481
C         20.83580        11.61628         1.16336
C         19.61886        12.40417         1.20460
C         20.70660        14.46007         0.28946
C         19.56250        13.74784         0.85374
C         20.73705        15.80471         0.19547
C         19.60421        16.63796         0.74386
C         20.73170        18.79574        -0.04632
C         19.60737        18.09615         0.30357
C         20.71512        20.21060        -0.24867
C         19.59458        20.99675         0.00356
C         20.83895        23.17367        -0.05931
C         19.65057        22.44409        -0.01839
C         20.84067        24.57639        -0.11799
C         19.66123        25.33665        -0.01856
C         20.81278        27.51953        -0.47119
C         19.65049        26.77955        -0.17986
C         20.75030        28.87951        -0.75921
C         19.52247        29.56739        -0.79490
C         20.56845        31.74377        -1.46525
C         19.42844        30.95909        -1.20650
C         20.45983        33.05567        -1.92865
C         19.21573        33.62915        -2.22402
C         20.19800        35.88727        -2.76177
C         19.09929        35.00139        -2.72186
C         20.05100        37.18225        -3.26775
C         18.81948        37.63088        -3.73370
O         14.64474        27.72721         2.42529
O          8.86076        24.68072         4.53145
O          7.97388        18.41973         3.94919
O         17.31405        18.43987        -0.59433
O         16.22444        34.30692        -4.62077
O          1.79602        13.67294        -0.53337
O          7.63328        17.95081         0.20752
O         13.06747         9.17937        -1.19873
O          6.44187        29.70324         2.81800
O          1.12234        19.35019         3.51000
O         12.97505        14.08959         3.59299
O          2.87883        21.69810         5.11487
O         11.79239        16.29453         4.15360
O         17.35648        22.74477        -0.88872
O         18.90062         9.49295         2.74153
O          7.49941        29.97577        -1.67951
O          8.43295        34.28243        -3.68568
O          8.62765        11.67268        -1.99258
O         18.07874         8.41875        -0.62597
O         13.25675        34.08796        -4.50059
O         11.09242        23.30657         4.63019
O          1.60872        28.96970         4.17645
O         13.80194        23.16395         3.82919
O         12.09200        31.98911        -3.08574
O          4.93847         6.82590        -1.55448
O          7.72376         9.62110        -3.25814
H          8.39654        10.33084        -3.38724
O          8.02911        36.90150        -1.16573
H          7.97138        37.87944        -1.12629
O         11.26086         9.02740         2.04265
H         11.64535         9.22844         2.92760
O         15.48197        14.50186        -0.18071
H         16.24162        14.86930        -0.69739
O         19.71849        16.67524         2.19682
H         20.61152        17.00539         2.42801
O         12.96788        18.57608         4.66448
H         12.38765        17.95455         5.16134
O         12.28005        31.60758         1.10518
H         12.98901        31.16392         1.62056
O         13.31863         9.85429         3.09350
H         14.07737        10.26924         3.55684
O          9.56844        28.21546        -1.31166
H          8.75119        28.55256        -1.76333
O         11.27697        26.35811        -0.13930
H         10.63361        26.69095        -0.81248
O         12.11600        27.67397         3.14913
H         12.94929        27.66576         3.66966
O          8.88747        28.43037         3.14622
H          8.05894        28.99329         3.22719
O         18.66962        11.91421         3.31226
H         19.00822        11.04212         3.63591
O         10.84213        33.58899        -0.01780
H         11.29350        33.08921         0.70513
O          4.80892        28.18568        -0.08825
H          4.04801        28.39196        -0.67085
O          1.71554        25.04952         6.04203
H          2.69270        25.04568         6.21128
O          5.02773        16.99884        -1.89494
H          5.85935        17.42005        -1.58270
O          2.43726        17.69976        -2.34745
H          3.42583        17.70470        -2.38083
O          0.83303         8.99433        -3.07484
H          0.56234         9.55056        -2.31384
O         16.87136        20.45696         3.09562
H         16.17799        20.26884         3.76580
O          6.53482        23.72041         5.39342
H          7.39033        24.20405         5.52600
O          4.33557        25.20845         5.55259
H          5.15216        24.67685         5.76556
O         18.00593        15.84180        -0.95321
H         17.76850        16.76289        -1.23999
O          7.52845        24.62781         1.19742
H          6.79150        24.98361         0.65601
O          4.24019         9.25842        -0.28377
H          4.10653         8.28312        -0.32343
H          3.07024         5.86060        -7.40096
H          1.46643         7.62792        -8.09980
H          0.83875         9.45274        -6.55714
H          0.20717        10.76166        -5.21734
H          0.23209        12.92802        -4.13610
H         -0.21407        14.42796        -2.94469
H          0.01595        16.75564        -2.37382
H         -0.38665        17.13602        -0.11854
H         -0.67685        18.29850         2.09577
H         -0.79592        20.96699         3.88011
H         -0.70507        23.40788         4.25252
H         -0.70033        25.28694         4.72484
H         -0.79302        27.50576         3.78757
H         -0.88017        29.27830         2.99610
H         -1.12597        31.08768         1.40595
H         -1.30732        32.63055         0.36596
H         -1.50418        34.74128        -0.85580
H         -0.46695        36.63071        -2.08386
H          4.68694         4.97415        -5.74282
H          1.54999        37.75687        -2.98758
H          6.23131         4.07550        -4.02441
H          3.99173        37.83337        -3.28947
H          8.37098         3.58928        -3.12723
H          6.43165        38.00120        -3.44669
H         10.80841         3.24623        -2.56403
H          9.02215        38.07182        -3.71692
H         13.24907         2.98752        -2.08576
H         11.46904        38.12192        -4.03357
H         15.61989         2.69043        -1.40945
H         13.89834        38.16717        -4.30144
H         17.80791         2.31607        -0.55782
H         16.30379        38.32645        -4.35279
H         19.78929         3.06817         0.72260
H         21.04792         4.93466         1.82086
H         21.32749         7.34406         2.35509
H         21.84814         9.74974         1.32386
H         21.78663        12.14210         0.98689
H         21.56454        13.87539        -0.07338
H         21.61920        16.29706        -0.23992
H         21.69677        18.28147        -0.16457
H         21.65415        20.68761        -0.56143
H         21.80454        22.64968        -0.09110
H         21.80791        25.08419        -0.22937
H         21.79204        27.02282        -0.49687
H         21.68382        29.40518        -1.00082
H         21.57198        31.33343        -1.29059
H         21.38235        33.62835        -2.09383
H         21.18339        35.56744        -2.39747
H         20.92095        37.85330        -3.29307
H         18.71254        38.65342        -4.12257
