         280
 CSIRO Nanostructure Databank - Neutral Graphene Oxide Data Set
C         30.48631        31.26253         0.69336
C         30.39114        32.48930         0.59002
C         30.76805        35.59893        -0.88321
C         31.12962        36.68812        -1.34906
C         31.04629        40.20058        -4.16467
C         31.43902        41.01179        -3.27960
C         33.05863        28.77679         1.72069
C         31.95281        29.20822         1.36230
C         32.88013        31.44357         1.08527
C         31.75205        30.45541         0.56477
C         32.72138        32.80985         1.10520
C         31.35178        33.56109         0.94737
C         32.59557        35.55479         0.65639
C         31.67958        34.63621        -0.13081
C         33.40783        37.25815        -1.30087
C         32.08040        37.76023        -1.51206
C         32.99198        39.99694        -1.05996
C         31.86208        39.13706        -1.26949
C         32.85424        41.50853        -1.17202
C         31.90967        41.87674        -2.33784
C         32.90954        44.04921        -2.42281
C         31.90931        43.30120        -2.43183
C         35.92961        27.54826         2.34248
C         35.59802        28.87368         2.03325
C         34.26710        29.53222         2.20972
C         35.34806        31.53840         1.12134
C         34.17267        30.85158         1.43204
C         35.16337        32.93964         0.56480
C         34.00981        33.62114         1.29768
C         35.10602        35.85750         0.75629
C         33.94048        35.10822         0.90729
C         35.04296        37.38430         0.67860
C         34.33893        38.01313        -0.53844
C         35.23878        40.27977         0.05323
C         34.16176        39.42213        -0.52448
C         35.37484        41.71122        -0.45647
C         34.27022        42.19432        -1.40456
C         35.45011        44.44973        -2.07553
C         34.28236        43.58075        -2.11421
C         35.73419        45.73952        -1.63654
C         38.33301        27.59227         2.34882
C         36.99295        26.97602         2.68398
C         38.07350        29.01060         1.78104
C         36.79924        29.59001         1.65803
C         37.79915        31.67144         0.73059
C         36.64395        30.96654         1.21156
C         37.63760        33.05996         0.25031
C         36.41034        33.78144         0.61171
C         37.64106        35.91516         0.52243
C         36.38679        35.16362         0.66514
C         37.64958        37.32659         1.00248
C         36.37107        38.11045         0.94581
C         37.77421        40.26565         0.69073
C         36.44449        39.58217         0.65570
C         37.66691        41.77957         0.80819
C         36.70732        42.36413        -0.25457
C         38.08957        44.44510        -0.41235
C         37.15075        43.47663        -0.95649
C         38.00785        45.83062        -0.60358
C         36.89642        46.21109        -1.38535
C         40.36150        24.68211         1.01169
C         39.48202        25.39137         1.52586
C         40.49664        27.51293         0.90243
C         39.04363        26.78330         1.23185
C         40.19186        28.91083         0.32298
C         39.31659        29.74882         1.33195
C         40.22570        31.80567         0.20829
C         39.05973        31.09809         0.71147
C         40.16146        33.15280        -0.07917
C         38.86426        33.86029        -0.10387
C         40.07177        36.13624        -0.19067
C         38.81373        35.32273         0.12780
C         40.14255        37.43873         0.55316
C         38.93312        38.09856         1.04659
C         40.17273        40.26726         1.57125
C         38.91249        39.59476         1.01452
C         40.24142        41.76879         1.24055
C         39.06172        42.39488         0.51280
C         40.36258        44.61879         0.64758
C         38.99898        43.93180         0.68294
C         40.38051        46.08254         0.36402
C         38.97468        46.78539         0.09478
C         40.48295        48.37023        -1.12594
C         39.39063        47.94470        -0.74087
C         42.58373        24.58550        -0.47101
C         41.70339        25.21144         0.60039
C         42.56554        27.41095        -0.59106
C         41.31959        26.63117        -0.08601
C         42.61162        28.91731        -0.58009
C         41.46269        29.68373        -0.01655
C         42.55151        31.76512        -0.85471
C         41.45432        31.04731        -0.07312
C         42.65322        33.24238        -0.53223
C         41.32634        33.95271        -0.60199
C         42.64400        36.06997        -0.22929
C         41.37017        35.31329         0.10651
C         42.60535        37.58353        -0.12906
C         41.43226        38.09168         0.69285
C         42.73832        40.27279         0.88263
C         41.48802        39.52010         1.20185
C         42.78669        41.63371         0.88105
C         41.55754        42.45044         1.02095
C         42.86792        44.58910         0.63120
C         41.60143        43.80546         0.30686
C         42.89339        45.93330         0.41031
C         41.69531        46.63263        -0.09889
C         43.13983        48.28985        -0.90752
C         41.78565        47.82045        -0.82333
C         43.55344        25.22013        -0.91160
C         45.14825        27.38081        -0.87925
C         43.87862        26.63798        -0.69117
C         45.16431        28.91327        -0.93468
C         43.89656        29.64870        -0.75018
C         45.04893        31.78923        -1.17324
C         43.89906        31.04634        -0.82131
C         45.00010        33.24885        -1.21174
C         43.79733        33.96442        -0.72443
C         45.02879        36.30688        -0.91905
C         43.79183        35.42789        -0.60368
C         45.12946        37.27913         0.34261
C         43.91124        38.15848         0.38413
C         45.24626        40.18841         0.79511
C         43.96473        39.48951         0.69507
C         45.29298        41.56068         0.82279
C         44.05703        42.38311         0.53801
C         45.35698        44.49914         1.24534
C         43.99846        43.78019         1.25267
C         45.38469        45.95884         0.90117
C         44.14954        46.78696         0.73257
C         44.17191        47.77417        -0.44071
C         47.21914        27.51634        -2.17249
C         46.35613        26.89937        -1.55774
C         47.46250        28.97463        -2.41546
C         46.30620        29.65968        -1.61005
C         47.56552        31.82413        -1.65565
C         46.19896        31.14142        -1.92918
C         47.56142        33.18769        -1.36123
C         46.33119        34.00990        -1.35989
C         47.57555        35.97316        -0.23053
C         46.44136        35.53809        -1.15539
C         47.61880        37.23389         0.32674
C         46.42286        38.03825         0.45230
C         47.73422        40.07911         1.03448
C         46.47242        39.39377         0.74093
C         47.79864        41.43909         1.10386
C         46.61736        42.26066         0.63654
C         47.97084        44.37324         0.87675
C         46.64619        43.70023         1.14098
C         47.83186        45.77689         0.72177
C         46.68995        46.34254         0.70584
C         50.00887        29.09943        -2.51848
C         48.75430        29.50727        -1.80073
C         50.05893        31.73134        -1.75446
C         48.79837        31.08282        -1.78673
C         50.12480        33.18186        -1.37577
C         48.83111        33.91379        -1.13565
C         50.12074        35.66257         0.24399
C         48.80194        35.12371        -0.23887
C         50.19837        37.13793         0.55858
C         48.91750        37.90485         0.62849
C         50.25872        39.92012         1.27277
C         48.91020        39.20418         1.42761
C         50.32410        41.40667         1.46479
C         49.00817        42.18407         1.64983
C         50.48068        43.97549         0.99952
C         49.11372        43.61439         1.03680
C         51.10369        29.68462        -2.44572
C         52.46575        31.74666        -1.64832
C         51.30312        31.03058        -2.02619
C         52.46033        32.86108        -1.06963
C         51.39645        33.74188        -0.76536
C         52.49110        35.67094         0.46284
C         51.40264        34.93444        -0.08956
C         52.50589        36.76817         1.05657
C         51.45394        37.73343         1.16223
C         52.58566        39.93819         1.74627
C         51.49311        39.06376         1.45407
C         52.75783        41.16671         1.73149
C         51.64417        42.14574         1.95691
C         51.60278        43.46136         1.19359
O         34.75633        41.40070         0.85981
O         36.63199        43.68796        -2.25117
O         50.39125        40.83095         0.13607
O         38.34742        37.47544         2.28032
O         40.51197        45.56882         1.73329
O         44.75510        37.04927        -2.04851
O         49.28004        34.86380         1.13928
O         42.25542        28.12696        -1.81733
O         44.78650        26.86910         0.41972
O         34.58560        42.32046        -2.80294
O         37.97716        33.32603        -1.16546
O         49.75686        37.96722        -0.56880
O         41.76746        38.41041         2.10840
O         45.48025        33.75672        -2.51564
O         46.11468        44.05781         2.44705
O         42.11212        31.75453        -2.20116
O         46.32067        29.44358        -0.18421
O         49.58850        34.09981        -2.38291
O         40.85122        42.53512         2.31807
O         36.21122        39.06848         2.02611
O         43.62030        43.55092         2.61977
H         44.44450        43.56482         3.16087
O         37.20424        42.01040         2.13422
H         37.22625        42.98059         2.31041
O         42.42950        38.12953        -1.45551
H         43.22458        37.79756        -1.97804
O         40.52425        26.30451        -1.22143
H         40.67524        27.00851        -1.89779
O         34.35426        33.62353         2.70165
H         33.58727        33.95378         3.21390
O         41.54930        43.57140        -1.12597
H         42.43172        43.19506        -1.39253
O         47.45890        29.31199        -3.77439
H         46.58016        29.14285        -4.17009
O         34.82722        32.84613        -0.83812
H         35.63058        32.57315        -1.33167
O         33.77101        36.03057        -1.67548
H         33.04659        35.54177        -2.12757
O         46.78043        42.43734        -0.82794
H         47.08618        41.58376        -1.20664
O         38.22117        26.81166         0.10459
H         38.72594        26.41122        -0.64683
O         40.16128        29.98069         2.50360
H         39.73847        30.67566         3.05063
O         32.27336        42.04454         0.02623
H         32.93016        41.90579         0.75330
O         31.00365        34.22326         2.15620
H         30.50766        33.59993         2.72668
O         41.36808        35.01918         1.52328
H         41.50698        35.85400         2.02119
O         34.10280        29.78650         3.61449
H         33.19183        30.11474         3.76369
O         45.90431        31.27269        -3.33400
H         45.72081        32.23163        -3.50295
O         48.76524        42.34521         3.06208
H         49.58092        42.71611         3.47428
O         42.49621        25.40757         1.72274
H         42.65797        24.55583         2.17430
O         41.30802        27.63476         2.04435
H         40.94409        28.32327         2.64973
O         34.19323        37.73701         1.82205
H         34.62895        38.51542         2.27259
O         39.15728        27.63372         3.49407
H         38.66188        28.04271         4.23220
O         32.04229        36.61041         1.14842
H         32.69666        37.17534         1.66351
O         38.39915        44.29918         1.95222
H         39.10389        44.21575         2.63604
O         48.83528        29.05496        -0.46696
H         49.69051        29.32695        -0.07675
O         51.50897        42.42119         3.33302
H         52.31743        42.87408         3.65204
O         46.94147        36.00990        -2.41508
H         46.20755        36.60155        -2.76731
O         43.93370        47.51160         1.92650
H         43.10398        48.02619         1.84320
O         38.40811        47.19174         1.32561
H         38.35666        46.39631         1.90453
O         44.06002        42.64923        -0.90479
H         45.00575        42.63644        -1.21152
O         32.01723        30.21716        -0.79239
H         31.54364        29.41059        -1.08079
O         30.60146        39.58239        -1.18841
H         30.57332        40.54644        -1.02092
O         32.39670        33.94602        -1.14918
H         31.92884        33.11098        -1.36687
O         39.28868        42.09099        -0.88322
H         40.11008        42.55758        -1.19806
O         39.47334        28.76773        -0.90835
H         39.55574        29.60352        -1.41563
O         40.01801        40.16004         2.99498
H         40.55202        40.87796         3.40373
O         41.09863        34.13804        -2.02076
H         41.37249        33.25877        -2.43912
O         48.75819        38.84538         2.82003
H         48.54952        39.65654         3.33138
O         45.08002        36.38092         1.49084
H         45.10012        36.92207         2.30846
O         39.98357        36.47115        -1.59433
H         40.35264        35.71168        -2.11620
