         280
 CSIRO Nanostructure Databank - Neutral Graphene Oxide Data Set
C         30.63205        31.69388         0.62992
C         30.73254        32.74935        -0.02411
C         30.69355        35.62679        -1.19979
C         30.69582        36.84967        -1.52224
C         30.53648        39.97438        -2.29429
C         30.52657        41.21732        -2.21445
C         32.95609        29.56462         2.57149
C         31.76724        29.95435         2.27689
C         32.98807        31.95408         1.39728
C         31.67713        30.72544         0.98781
C         32.99942        33.17890         0.51039
C         31.86422        33.66736        -0.09644
C         33.03071        35.76636        -0.85050
C         31.84463        34.97164        -0.71677
C         32.99712        37.10462        -1.35380
C         31.75744        37.74994        -1.65125
C         32.89082        40.03715        -1.84681
C         31.61625        39.23451        -1.51425
C         32.78175        41.51657        -1.63084
C         31.56600        42.14859        -1.86120
C         32.54364        44.21483        -1.14659
C         31.58817        43.57133        -1.62588
C         35.54351        27.89758         1.64693
C         35.49257        29.13121         2.56263
C         34.26146        29.95888         2.36585
C         35.49019        32.09899         1.80543
C         34.31521        31.18595         1.44776
C         35.44181        33.50455         1.21758
C         34.11976        34.17953         0.79272
C         35.44467        35.95933        -0.36981
C         34.26482        35.26676        -0.25838
C         35.61984        37.11373        -1.35671
C         34.27787        37.75920        -1.88264
C         35.50417        40.19941        -1.76371
C         34.22305        39.34354        -1.89765
C         35.31888        41.61980        -1.16214
C         33.93461        42.23872        -0.95361
C         35.04307        44.53157        -0.53226
C         33.98215        43.82855        -1.37591
C         35.40795        45.97484        -0.79595
C         37.84019        27.07510         1.48727
C         36.40730        27.05856         1.36959
C         38.00037        29.24405         2.23721
C         36.79911        29.88195         2.21367
C         37.94606        31.88084         1.16247
C         36.83420        31.40943         2.13827
C         37.97513        33.41460         1.05395
C         36.69724        34.12367         0.78094
C         37.90863        36.06400        -0.13507
C         36.69119        35.37155         0.12654
C         37.89923        37.45669        -0.47003
C         36.68132        38.09001        -0.88229
C         37.84224        40.23040        -0.90395
C         36.65978        39.47127        -1.09686
C         37.78706        41.71214        -0.95535
C         36.43452        42.34369        -0.85439
C         37.58905        44.54469         0.02426
C         36.46744        43.87441        -0.83477
C         37.82788        46.03375        -0.39044
C         36.43282        46.58807        -0.47870
C         40.07018        24.81866        -0.17092
C         39.09225        25.58791        -0.08004
C         40.25194        27.48965         0.88916
C         38.89958        26.78326         0.68857
C         40.22760        29.06365         0.85502
C         39.38124        29.81246         1.98287
C         40.55443        31.96211         1.21766
C         39.28750        31.29988         1.61990
C         40.50494        33.19645         0.33669
C         39.23925        34.02682         0.54708
C         40.47496        36.08388        -0.08383
C         39.19130        35.29703        -0.27520
C         40.38680        37.58233         0.05226
C         39.10308        38.19941        -0.43820
C         40.32568        40.34146        -0.60125
C         39.07423        39.58691        -0.65526
C         40.28178        41.75363        -0.25762
C         39.01430        42.47404        -0.48671
C         39.97599        44.43455         0.72086
C         38.93102        43.84580         0.05208
C         39.94776        45.87491         1.03270
C         38.80849        46.64033         0.58640
C         39.94999        48.62259         1.39839
C         38.98776        47.98527         0.86852
C         42.71784        24.70879        -0.00439
C         41.43751        25.39242        -0.41929
C         42.80136        27.50364         0.26996
C         41.48862        26.75740         0.41754
C         42.83380        28.91844         0.74408
C         41.61294        29.70254         0.81812
C         42.98000        31.80073         0.41455
C         41.85205        31.14359         1.23700
C         43.01433        33.28285         0.35194
C         41.74249        34.06321         0.68122
C         42.98697        36.21589         0.00953
C         41.66695        35.45950         0.08589
C         42.80225        37.60556        -0.54712
C         41.61382        38.26596        -0.49409
C         42.77309        40.57156        -0.66413
C         41.53835        39.69597        -0.67966
C         42.58680        41.53173         0.52394
C         41.34433        42.35679         0.36975
C         42.32669        44.22192         1.83795
C         41.05479        43.52638         1.31023
C         42.32741        45.75921         2.06461
C         41.08225        46.52007         1.58704
C         42.48035        48.41565         1.95406
C         41.13560        47.95420         1.73557
C         43.78455        25.30756         0.15791
C         45.41102        27.39244         0.41381
C         44.11177        26.74284         0.16431
C         45.50685        28.93472         0.25388
C         44.17245        29.64508         0.45868
C         45.13821        31.62908        -0.84246
C         44.08166        31.06473         0.06235
C         45.15731        33.12388        -1.06372
C         44.14431        33.99073        -0.38649
C         45.15659        36.07497        -1.39759
C         44.00865        35.39372        -0.78009
C         45.22315        37.58788        -1.33827
C         43.99996        38.34928        -0.97714
C         45.27456        40.45018        -0.84934
C         44.07498        39.80572        -0.68670
C         45.03916        41.35882         1.52530
C         43.70210        42.02209         1.41356
C         44.95191        44.20529         1.71489
C         43.64288        43.47449         1.82135
C         44.89425        45.62411         1.76020
C         43.63341        46.37412         1.43126
C         43.56477        47.82745         1.85457
C         47.61104        27.57949        -0.09075
C         46.64060        26.77517         0.31671
C         47.72536        28.63165        -0.90225
C         46.32162        29.30371        -1.01520
C         47.65364        31.56626        -1.64452
C         46.34595        30.83381        -1.31622
C         47.69332        32.96648        -1.57674
C         46.43459        33.77586        -1.53971
C         47.69221        36.01788        -1.11961
C         46.47076        35.30302        -1.56647
C         47.70353        37.38513        -0.76286
C         46.56446        38.24628        -1.13668
C         47.66347        40.14074         0.18148
C         46.57924        39.72238        -0.73891
C         47.54556        41.24028         1.30345
C         46.23040        42.03319         1.39798
C         47.43702        44.19160         1.58438
C         46.18963        43.49295         1.54837
C         47.25813        45.57004         1.76174
C         46.17262        46.21039         1.76955
C         50.09561        28.58453        -1.77957
C         48.70300        29.11501        -1.91399
C         50.12085        31.15632        -1.95659
C         48.83923        30.69028        -1.78641
C         50.24027        33.39229        -1.81353
C         48.86862        33.96579        -1.82200
C         50.01589        35.79879        -0.40922
C         48.84605        35.23665        -0.97985
C         50.05900        37.18245        -0.12094
C         48.89462        37.99545        -0.28939
C         50.00283        39.94219         0.92479
C         48.81990        39.37351         0.20679
C         50.06389        41.47248         0.81716
C         48.76345        42.13906         1.21473
C         49.99270        44.14481         1.44933
C         48.69548        43.50224         1.43845
C         51.22540        29.09843        -1.84100
C         52.48159        31.50300        -1.47114
C         51.35292        30.50671        -1.29793
C         52.30515        32.68283        -1.10813
C         51.32655        33.73489        -1.06298
C         52.29163        35.65049         0.33627
C         51.13744        34.77933         0.00674
C         52.34294        36.84069         0.64445
C         51.40656        37.90203         0.12306
C         52.45214        40.05718         1.05851
C         51.29340        39.14582         0.96562
C         52.38620        41.23126         1.52698
C         51.34922        42.16415         1.43147
C         51.07437        43.50564         1.64821
O         45.37090        33.38106        -2.46457
O         40.01300        32.13369         2.56010
O         42.68237        41.10196         1.92690
O         33.50569        39.72801        -3.12275
O         34.08754        37.30640        -3.19866
O         42.86983        43.60282         3.05982
O         38.85672        34.19018         1.93334
O         38.66040        42.37004        -1.93693
O         35.30519        33.20491         2.69270
O         45.18988        31.02960        -2.19059
O         43.45820        27.35043        -1.02322
O         46.98990        39.27779        -2.07346
O         38.10925        27.89892         2.61828
O         50.34063        32.32054        -2.70068
O         43.77639        29.28512         1.82255
O         45.72442        35.75096        -2.72052
O         41.09801        26.76747         1.82121
O         50.42130        39.22109         2.11534
O         44.17064        33.80177         1.09955
O         44.38672        38.13076        -2.40606
O         35.54016        28.65235         3.88948
H         36.34943        28.10530         3.98978
O         39.50745        29.38054        -0.37722
H         40.08232        29.19047        -1.14940
O         36.27039        36.48799        -2.50369
H         35.58938        36.56814        -3.23944
O         37.15153        44.52222         1.40717
H         37.87741        44.85618         1.97799
O         35.97109        40.45209        -3.10998
H         35.17667        40.41231        -3.69604
O         42.34883        31.20517         2.60121
H         41.79851        30.57201         3.12630
O         43.48604        46.30643         0.01193
H         44.26107        46.73572        -0.40773
O         34.64456        30.70013         0.13197
H         33.90181        30.12569        -0.17639
O         47.70493        40.50857         2.54532
H         46.87354        40.01292         2.71273
O         37.23833        31.80748         3.45932
H         36.79624        32.66539         3.66614
O         46.33200        29.45198         1.32419
H         45.83679        29.32675         2.16439
O         40.38987        37.81500         1.49898
H         41.14464        37.31525         1.88218
O         37.63841        31.42415        -0.16418
H         38.19022        30.63352        -0.38685
O         34.23686        43.91510        -2.74974
H         35.13807        44.29010        -2.90509
O         33.64722        34.93201         1.94446
H         33.76499        34.34903         2.73229
O         39.19052        34.89820        -1.69878
H         38.44870        35.35501        -2.15996
O         36.75508        44.22440        -2.20634
H         37.55552        43.70938        -2.48563
O         45.33527        41.77636        -1.13083
H         44.44512        42.04756        -1.48086
O         40.12842        29.66331         3.20193
H         39.68801        30.20647         3.89095
O         42.37024        46.00348         3.47274
H         42.77499        45.21941         3.91179
O         43.49838        36.42223         1.36293
H         43.47300        35.53815         1.81204
O         45.00617        40.03391         1.82744
H         44.05640        39.80408         1.99664
O         31.36309        39.43771        -0.12047
H         30.53330        38.97561         0.12122
O         33.65441        42.06741         0.44946
H         33.89106        42.89449         0.93808
O         32.67035        32.37021         2.71124
H         31.84016        32.89137         2.68496
O         32.02141        29.91784        -0.09093
H         31.49388        30.16431        -0.87809
O         40.61335        32.73364        -1.01817
H         40.20604        33.40885        -1.61677
O         51.85950        38.32503        -1.15895
H         52.63056        38.92021        -1.03601
O         41.54096        25.74195        -1.77142
H         41.69807        24.93905        -2.30836
O         40.40494        42.93604         2.46641
H         41.10926        42.48956         2.99228
O         41.76503        34.31615         2.10389
H         41.79615        33.45547         2.58239
O         50.20473        41.68012        -0.61211
H         50.14693        42.64219        -0.79723
O         48.21647        28.87745        -3.22799
H         47.26311        28.61718        -3.17024
O         42.75718        41.47695        -1.81409
H         42.72058        40.92735        -2.62704
O         48.64197        34.44204        -3.17720
H         48.82283        33.69562        -3.78939
O         45.76137        28.64115        -2.15615
H         45.15092        29.27602        -2.60605
O         50.66625        34.10627         1.17546
H         50.75117        34.70825         1.94381
O         51.08535        30.43535         0.09200
H         51.88205        30.10141         0.55317
O         34.64723        44.43708         0.82024
H         35.38826        44.75344         1.39262
O         38.46467        46.06858        -1.66398
H         38.50344        46.99855        -1.96796
