         429
 CSIRO Nanostructure Databank - Neutral Graphene Oxide Data Set
C          1.09815         4.15538        -2.72598
C         -0.09449         4.84120        -2.58272
C          1.09846         6.88955        -1.96888
C         -0.09987         6.19304        -2.20154
C          1.10153         8.29585        -1.60022
C         -0.04953         8.97580        -1.24279
C          1.13649        11.10789        -0.88342
C         -0.04847        10.35292        -0.93715
C          1.12200        12.50512        -0.53114
C         -0.05002        13.22730        -0.30723
C          1.13622        15.21276         0.54373
C         -0.03897        14.56622         0.12554
C          1.15543        16.53237         1.05147
C         -0.00741        17.33208         1.21217
C          1.26701        19.21066         2.16774
C          0.03155        18.57385         1.81375
C          1.31822        20.49234         2.80898
C          0.17041        21.33861         3.09668
C          1.32406        23.58227         3.00086
C          0.17093        22.70959         3.17815
C          1.27798        24.91480         2.48049
C          0.03576        25.53952         2.07330
C          1.13441        27.71487         1.66006
C         -0.03147        26.81481         1.61305
C          1.15636        29.01218         0.94080
C         -0.05265        29.63232         0.58453
C          1.12872        31.61960        -0.18040
C         -0.06717        30.91804         0.06123
C          1.08516        33.00380        -0.65412
C         -0.11522        33.74912        -0.66751
C          1.04554        35.68903        -1.56254
C         -0.13381        35.06596        -1.10384
C          1.04133        37.08721        -1.95242
C          3.55659         4.09889        -2.58163
C          2.33837         4.81177        -2.47991
C          3.59146         6.84229        -1.81447
C          2.34004         6.19374        -2.11052
C          3.62071         8.25757        -1.50794
C          2.38107         9.07537        -1.78199
C          3.61338        11.07311        -0.86039
C          2.39031        10.43837        -1.12271
C          3.66250        12.45603        -0.46404
C          2.40347        13.29446        -0.51604
C          3.68009        15.15439         0.47396
C          2.40629        14.36677         0.58825
C          3.60009        16.64475         0.52446
C          2.47678        17.07651         1.52951
C          3.70991        19.28612         1.84319
C          2.49371        18.56501         1.82549
C          3.78168        20.54439         2.48517
C          2.60333        20.96017         3.13785
C          3.80213        23.60479         2.79684
C          2.60234        23.07680         3.30223
C          3.73783        24.93145         2.32390
C          2.50078        25.60749         2.25597
C          3.68975        27.75310         1.47966
C          2.47930        27.05841         1.95676
C          3.65783        29.02944         0.95337
C          2.38317        29.67771         0.67990
C          3.61682        31.58206        -0.32798
C          2.36986        30.96381         0.06693
C          3.53923        32.84769        -1.08315
C          2.27350        33.62721        -1.10106
C          3.49915        35.57807        -2.16891
C          2.25073        34.95281        -1.57580
C          3.47314        37.09178        -2.21491
C          2.19296        37.75873        -2.22790
C          6.01135         3.99784        -2.34450
C          4.78544         4.71752        -2.28563
C          6.04973         6.68448        -1.44454
C          4.77806         6.09415        -1.87457
C          6.05327         8.14319        -1.05733
C          4.79703         8.90561        -1.17666
C          6.07791        10.95327        -0.63925
C          4.85068        10.32695        -0.91572
C          6.12197        12.35743        -0.32235
C          4.87031        13.07269        -0.17994
C          6.13154        15.13812         0.36120
C          4.89753        14.48195         0.23911
C          6.17872        16.48809         0.91717
C          4.89741        17.28828         0.97936
C          6.22429        19.40493         1.47124
C          4.89352        18.81254         1.01037
C          6.20289        20.68787         2.22872
C          5.02120        21.34234         2.54787
C          6.21697        23.50844         2.52732
C          5.04013        22.80575         2.72908
C          6.24933        24.99461         2.50093
C          5.00037        25.62046         1.97426
C          6.20368        27.90242         1.75049
C          4.98715        27.04682         1.56744
C          6.13320        29.20859         1.05450
C          4.91657        29.72425         0.64204
C          6.10827        31.70096        -0.34457
C          4.85765        31.01319        -0.03359
C          6.09833        32.99510        -0.91201
C          4.82032        33.58749        -1.34275
C          6.00222        35.73558        -1.86319
C          4.72991        35.09961        -1.38105
C          5.94011        37.08568        -2.31990
C          4.65308        37.76565        -2.35765
C          8.46436         3.88311        -2.28639
C          7.27888         4.61294        -2.17032
C          8.50546         6.72538        -1.74243
C          7.32757         6.03627        -1.83740
C          8.56024         8.23254        -1.64152
C          7.31918         8.88565        -1.10263
C          8.59699        10.91889        -0.63436
C          7.32881        10.23255        -0.80649
C          8.59478        12.30231        -0.32488
C          7.35232        13.01609        -0.20849
C          8.65592        15.07083         0.47546
C          7.39737        14.52684        -0.17132
C          8.64209        16.41430         1.01780
C          7.48337        17.15295         1.09407
C          8.67183        19.15156         2.27051
C          7.49402        18.59382         1.46380
C          8.74083        20.63913         2.01219
C          7.49792        21.34612         2.38723
C          8.60235        23.62076         1.74858
C          7.51974        22.84905         2.48571
C          8.87420        25.01695         2.40281
C          7.53536        25.77439         2.48669
C          8.87155        27.98129         1.97079
C          7.51227        27.26819         2.15938
C          8.73291        29.34254         1.26947
C          7.38603        29.97263         0.91276
C          8.57938        31.82491        -0.24546
C          7.36412        31.15720         0.03916
C          8.54672        33.10330        -0.89503
C          7.29499        33.71100        -1.15883
C          8.41824        35.69454        -2.15484
C          7.22929        35.05753        -1.73173
C          8.36793        37.04143        -2.67551
C          7.11478        37.73257        -2.69116
C         11.01374         3.83139        -2.11473
C          9.76485         4.53923        -2.33149
C         11.03491         6.66904        -1.55509
C          9.78986         6.07470        -2.07162
C         10.98716         8.01393        -1.02818
C          9.82524         8.77576        -1.01501
C         11.04238        10.86550        -0.41884
C          9.82121        10.18069        -0.66013
C         11.05187        12.26562        -0.22850
C          9.83962        12.98332        -0.11780
C         11.12445        14.98721         0.67215
C          9.84242        14.36336         0.33576
C         11.16611        16.33880         1.02871
C          9.93302        17.02052         1.42643
C         11.20477        19.24430         1.74527
C          9.98042        18.42674         1.95100
C         11.17746        20.61018         1.73203
C          9.89550        21.31975         1.77162
C         11.16123        23.48233         1.19602
C          9.86484        22.78376         1.46293
C         11.22492        24.94750         1.52318
C          9.96820        25.75042         1.63112
C         11.21417        27.80067         0.98110
C          9.99244        27.10423         1.41849
C         11.16690        29.16012         0.60416
C          9.92048        29.90754         0.58971
C         11.11265        31.97556        -0.18370
C          9.84598        31.17491         0.01993
C         10.99771        33.09837        -1.18484
C          9.76715        33.72764        -1.36646
C         10.81736        35.59154        -2.59807
C          9.68274        35.01037        -2.06078
C         10.78899        36.89645        -3.37149
C          9.51555        37.65278        -3.16628
C         13.44387         3.79468        -1.89067
C         12.21818         4.51269        -1.90538
C         13.48432         6.55623        -1.21124
C         12.22512         5.93502        -1.58093
C         13.51522         7.89179        -0.75120
C         12.23984         8.57957        -0.49126
C         13.60027        10.72288        -0.20052
C         12.27882        10.08026        -0.22671
C         13.65703        12.18275        -0.09202
C         12.34753        12.97860        -0.08638
C         13.52910        14.84104         1.29086
C         12.34473        14.29350         0.52217
C         13.70077        16.33401         1.11322
C         12.43915        17.07888         1.02453
C         13.75171        19.19855         1.61445
C         12.45338        18.54804         1.35498
C         13.75093        20.63139         1.70854
C         12.45783        21.41452         1.90784
C         13.73626        23.49207         1.21219
C         12.46503        22.68160         1.03925
C         13.74696        24.87445         1.03324
C         12.51352        25.65680         1.28764
C         13.68216        27.70071         0.61584
C         12.47710        27.08904         0.94196
C         13.66265        29.15191         0.37630
C         12.36952        29.83374         0.17108
C         13.54317        31.75271        -0.86670
C         12.35769        31.13476        -0.32705
C         13.43868        33.01880        -1.55518
C         12.20141        33.62067        -1.76712
C         13.34733        35.68012        -2.80268
C         12.09488        34.86928        -2.55865
C         13.22245        37.16187        -2.77391
C         12.00416        37.73374        -3.02541
C         15.89518         3.70416        -1.65763
C         14.67909         4.42198        -1.62771
C         15.93776         6.47267        -1.02302
C         14.69963         5.82389        -1.28859
C         15.95736         7.85293        -0.69479
C         14.75117         8.55557        -0.51404
C         16.04359        10.65227         0.01002
C         14.77900         9.98529        -0.20344
C         16.06069        12.01869         0.45491
C         14.86175        12.74742         0.51935
C         16.16554        14.81412         1.23696
C         14.83499        14.06767         1.14482
C         16.17517        16.28719         1.26264
C         14.90735        17.00535         1.26195
C         16.21348        19.10625         1.62759
C         14.91990        18.44725         1.45456
C         16.21880        20.63514         1.64136
C         14.93764        21.34537         1.55258
C         16.19286        23.45014         1.13472
C         14.96164        22.77145         1.29932
C         16.19721        24.84692         0.84184
C         14.97038        25.57555         0.82957
C         16.15984        27.62329         0.18953
C         14.94739        26.98606         0.56821
C         16.16635        29.02084        -0.24130
C         14.92004        29.81867        -0.11262
C         15.99123        31.73635        -1.25188
C         14.78990        31.08700        -0.84330
C         15.96541        33.07124        -1.62893
C         14.67621        33.55086        -2.25935
C         15.81925        35.92752        -2.09537
C         14.67063        35.05545        -2.49012
C         15.55907        37.38024        -1.92179
C         14.34967        37.93520        -2.31523
C         18.34802         3.57426        -1.33997
C         17.12628         4.33054        -1.36987
C         18.41164         6.34654        -0.73675
C         17.16530         5.72232        -1.07332
C         18.47465         7.74158        -0.45036
C         17.27039         8.59260        -0.77236
C         18.48098        10.55437         0.20288
C         17.26613         9.94012        -0.09692
C         18.54129        11.96639         0.44408
C         17.32678        12.69883         0.63006
C         18.61939        14.79305         0.80226
C         17.38383        14.09288         0.83948
C         18.64472        16.21592         0.99315
C         17.40676        16.94635         1.18917
C         18.65012        19.07670         1.14094
C         17.45996        18.38693         1.26753
C         18.66590        20.56128         0.83850
C         17.44619        21.33635         1.25106
C         18.69909        23.42360         0.95768
C         17.43948        22.70744         1.10086
C         18.68992        24.81947         0.71050
C         17.42342        25.52199         0.54816
C         18.62861        27.51646        -0.29917
C         17.37482        26.87305         0.15059
C         18.60607        28.97324        -0.63336
C         17.30239        29.65188        -0.66650
C         18.45524        31.89280        -0.79496
C         17.31552        31.02231        -1.29870
C         18.32839        33.30922        -0.93413
C         17.14112        33.89093        -1.43279
C         18.00956        36.16506        -0.94758
C         17.02326        35.32352        -1.48513
C         17.77343        37.59328        -0.85661
C         16.58535        38.16212        -1.32580
C         19.53096         4.16033        -0.98011
C         20.80229         6.16608        -0.24310
C         19.59355         5.55478        -0.65252
C         20.83350         7.51161         0.07984
C         19.67895         8.32124        -0.04843
C         20.94082        10.53935        -0.11412
C         19.75277         9.76438         0.40264
C         20.95939        11.88838        -0.02143
C         19.78760        12.65024         0.38527
C         21.05443        14.80140         0.55892
C         19.83208        14.06602         0.56879
C         21.07260        16.16405         0.74775
C         19.87597        16.91179         0.95461
C         21.08628        19.09791         1.15301
C         19.90288        18.36212         1.06150
C         21.09902        20.51429         1.27365
C         19.94787        21.27284         1.19240
C         21.11744        23.48320         1.24391
C         19.92988        22.72813         1.15378
C         21.11048        24.85617         1.01810
C         19.92197        25.52926         0.69484
C         21.04932        27.83660         0.45011
C         19.95173        26.90133         0.12800
C         20.97758        29.17468         0.27852
C         19.82749        29.84537        -0.35962
C         20.62039        32.18345         0.30544
C         19.62112        31.31932        -0.28108
C         20.55746        33.53081         0.17399
C         19.56286        34.16891        -0.76113
C         20.19641        36.47162         0.07780
C         19.25494        35.62510        -0.46993
C         19.95137        37.86924         0.19888
C         18.78092        38.41792        -0.25848
O          6.68900        27.98262         3.12784
O         12.74291        34.93084        -3.90350
O          6.82975        25.53263         3.74635
O          5.13263        25.98820         0.54495
O          9.87252         5.55974        -3.42000
O          1.74984        27.81797         2.98708
O         12.06770        25.30015         2.66899
O          4.19260        32.81821        -2.42447
O          5.38052        16.67328         2.18892
O         16.35577        19.84885         2.88789
O         12.39942        18.10526        -0.06356
O         19.46164        26.80408        -1.25903
O          6.04324         7.08571        -0.01787
O          7.17123        19.47795         0.34059
O         13.19528        12.90139        -1.31550
O         10.11983        17.31824         2.90994
O         12.12535         9.09884         0.87406
O         15.56702        14.14355         2.42182
O          7.77698        22.05750         3.66907
O          8.09197        30.29178         2.16917
O         19.52142        29.32874        -1.71299
O         10.28443        23.12911         0.08920
O         15.65272        35.45236        -3.50283
O          2.69564        21.94781         4.12626
O         14.52750        29.91890         1.31018
O          4.52250        35.53006        -0.00199
H          5.36905        35.43372         0.48260
O         12.43200        21.87589         3.28072
H         12.48680        21.10105         3.87778
O          9.37191        24.83760         3.73448
H          8.59049        24.74047         4.32750
O         18.62422        20.59537        -0.64904
H         19.47160        20.21761        -0.96973
O          3.21494        17.11800        -0.79538
H          2.92311        16.34546        -1.33086
O         10.84315        36.58248        -4.80634
H         11.59725        35.95026        -4.91870
O         11.29053        32.68336         1.10746
H         11.30177        32.00310         1.81591
O          2.81450        16.38873         2.77576
H          2.30478        16.80834         3.50044
O          2.43646        13.69571         1.87224
H          2.61884        14.39662         2.54401
O          4.67887        19.33152        -0.31668
H          3.96969        18.80193        -0.75047
O          3.60562        35.15782        -3.54763
H          3.68242        34.17185        -3.54864
O         17.54402        30.80891        -2.72845
H         18.36209        30.25727        -2.80309
O         12.50753        22.25950        -0.34430
H         13.26334        21.64538        -0.45759
O         13.10301        14.69519         2.68900
H         13.93067        14.60132         3.22003
O          7.47686        14.95440        -1.58691
H          8.28402        14.54970        -1.97137
O          9.34629        28.30732         3.29996
H          9.36679        27.48252         3.83058
O          2.44338         9.36981        -3.23966
H          1.57847         9.76018        -3.48924
O          8.61328         8.67194        -3.05615
H          9.25938         8.09699        -3.52189
O          7.96511        23.92671         0.48502
H          8.63412        23.77765        -0.22753
O         20.21898        34.19088        -2.08491
H         20.29467        33.26049        -2.38733
O         14.65567        32.94068        -3.58311
H         15.23509        33.49122        -4.15626
O         17.41201         8.92203        -2.20880
H         17.41497         8.07410        -2.70264
O         19.93727         9.68155         1.86214
H         19.97789        10.60054         2.20326
O          2.45996        14.07525        -1.75794
H          2.47974        13.44526        -2.50941
O          8.37491        18.98794         3.67024
H          8.82568        18.16215         3.96698
H          1.10165         3.09581        -3.01889
H         -1.04956         4.33034        -2.76888
H         -1.06530         6.70863        -2.10816
H         -1.00680         8.43996        -1.17246
H         -1.00881        10.82313        -0.68913
H         -1.02977        12.75269        -0.46099
H         -1.00226        15.09252         0.18661
H         -0.98435        16.92701         0.91226
H         -0.91105        19.10812         1.99455
H         -0.81458        20.84643         3.13314
H         -0.81214        23.19616         3.27729
H         -0.87437        24.92291         2.06846
H         -0.98195        27.18937         1.20725
H         -1.00809        29.12445         0.77165
H         -1.03646        31.38247        -0.16041
H         -1.05047        33.30043        -0.30770
H         -1.07414        35.63556        -1.08641
H          0.07761        37.61772        -1.95450
H          3.53728         3.03708        -2.86844
H          2.16760        38.83830        -2.44072
H          5.97929         2.93157        -2.61390
H          4.65139        38.85710        -2.50378
H          8.42335         2.78586        -2.35251
H          7.08247        38.76927        -3.05663
H         11.00934         2.73140        -2.12074
H          9.45199        38.67423        -3.57075
H         13.42893         2.72001        -2.12488
H         11.89956        38.82858        -2.98172
H         15.87920         2.62858        -1.88837
H         14.21077        39.02233        -2.21419
H         18.30940         2.50293        -1.58511
H         16.43054        39.24629        -1.21870
H         20.45471         3.56527        -0.93372
H         21.71340         5.55582        -0.16192
H         21.76927         7.96427         0.43654
H         21.83463         9.99707        -0.45624
H         21.86484        12.43525        -0.32186
H         22.00613        14.27580         0.40268
H         22.03929        16.68508         0.72147
H         22.05526        18.58145         1.17590
H         22.07482        21.00028         1.41704
H         22.07621        22.98410         1.43856
H         22.06434        25.40144         1.02853
H         21.93064        27.42464         0.96431
H         21.81201        29.79619         0.63478
H         21.42803        31.73469         0.90180
H         21.33819        34.14986         0.63743
H         21.16780        36.08691         0.41667
H         20.72390        38.50821         0.64884
H         18.60194        39.50003        -0.18182
