         244
 CSIRO Nanostructure Databank - Neutral Graphene Oxide Data Set
C          1.29697         2.07320        -0.96885
C          1.27807         3.49528        -0.76240
C          2.46001         1.36126        -0.88824
C          2.39535         4.18623        -0.36765
C          1.19609         6.37302        -0.21058
C          1.18180         7.74513        -0.06355
C          2.40643         5.63335        -0.17038
C          2.38274         8.47378         0.12098
C          1.18812        10.67914         0.23926
C          1.21438        12.05716         0.32698
C          2.38355         9.91513         0.24794
C          2.43309        12.76909         0.48438
C          1.33324        14.97743         0.07073
C          1.39168        16.35514        -0.09439
C          2.46495        14.23819         0.48006
C          2.56836        17.06335         0.20992
C          2.66103        18.49876        -0.02200
C          3.70111         2.02001        -0.56596
C          3.63475         3.41146         0.02236
C          4.90178         1.37374        -0.68533
C          4.91251         4.19232        -0.14971
C          3.62122         6.32423         0.04609
C          3.61247         7.75053         0.17900
C          4.89275         5.59461         0.02167
C          4.83780         8.48271         0.30521
C          3.61569        10.61098         0.39258
C          3.62372        12.02385         0.56312
C          4.85158         9.87209         0.37782
C          4.90136        12.69480         0.88974
C          3.65796        14.94669         0.78063
C          3.68792        16.35543         0.69635
C          4.91258        14.20976         1.07150
C          4.89512        17.10361         1.14184
C          3.74519        19.21453         0.32554
C          4.89066        18.63689         1.12131
C          6.16872         2.05855        -0.53351
C          6.13562         3.51026        -0.32298
C          7.34889         1.35962        -0.63158
C          7.34722         4.23295        -0.24172
C          6.11857         6.29007         0.14852
C          6.15324         7.76286         0.46776
C          7.34492         5.61162         0.04902
C          7.26462         8.45653        -0.32606
C          6.12584        10.59985         0.31720
C          6.15616        12.02712         0.52664
C          7.28256         9.93430        -0.02905
C          7.35173        12.75871         0.41637
C          6.19349        14.90742         0.86437
C          6.20533        16.35464         1.16211
C          7.36942        14.20411         0.58364
C          7.53630        17.09261         1.14058
C          6.21089        19.21580         0.67342
C          7.41589        18.55301         0.71327
C          8.65388         2.03296        -0.68113
C          8.62562         3.53990        -0.49371
C          9.92168         1.33488        -0.42217
C          9.89452         4.16146         0.07576
C          8.64395         6.35738         0.34272
C          8.60360         7.79273        -0.11163
C          9.88179         5.64401        -0.12827
C          9.77855         8.46199        -0.42474
C          8.50274        10.68444        -0.33569
C          8.56940        12.10051         0.05302
C          9.77510         9.93725        -0.63347
C          9.79929        12.77432         0.04928
C          8.60826        14.90502         0.39711
C          8.53776        16.39845         0.20045
C          9.81509        14.21233         0.22394
C          9.87069        17.09358         0.28640
C          8.63060        19.22056         0.40562
C          9.87156        18.52198         0.33752
C         11.13515         2.02929        -0.50224
C         11.06145         3.48405        -0.58289
C         12.39175         1.37895        -0.24701
C         12.05389         4.26332        -1.14202
C         11.02762         6.35270        -0.50353
C         11.01293         7.77480        -0.56387
C         12.23062         5.65327        -0.90359
C         12.21626         8.50927        -1.10004
C         11.06621        10.63342        -0.39764
C         11.04633        12.05760        -0.10069
C         12.23672         9.91383        -0.52625
C         12.25074        12.76686         0.01058
C         11.07038        14.91891         0.19245
C         11.08254        16.37683         0.27287
C         12.27566        14.20069         0.11147
C         12.30925        17.07814         0.33084
C         11.10249        19.21140         0.29661
C         12.33061        18.50773         0.30462
C         13.65243         2.02317        -0.19932
C         13.87087         3.26087        -0.89388
C         14.73240         1.55542         0.61389
C         14.87225         4.18478        -0.58967
C         13.51214         6.33223        -0.96625
C         13.51659         7.73387        -0.92773
C         14.78786         5.60111        -0.86098
C         14.80858         8.50877        -1.08896
C         13.51143        10.50246        -0.12637
C         13.51349        12.03470         0.14422
C         14.78446         9.88325        -0.47314
C         14.78697        12.73718        -0.01412
C         13.55429        14.87676         0.17270
C         13.58587        16.33098         0.61661
C         14.73769        14.17450         0.02086
C         14.79534        17.09229         0.14891
C         13.57100        19.20328         0.25063
C         14.79597        18.49748         0.06464
C         15.88590         2.32883         0.80037
C         15.99365         3.64035         0.16579
C         16.99451         1.85642         1.56852
C         17.15774         4.35844         0.21927
C         15.99991         6.34735        -0.71996
C         16.04692         7.73757        -0.69454
C         17.28094         5.54997        -0.70931
C         17.27015         8.45181        -0.43932
C         15.97689        10.56804        -0.25427
C         15.98602        12.00930        -0.05540
C         17.23300         9.84114        -0.26384
C         17.26447        12.70446        -0.12031
C         16.04098        14.91686         0.14542
C         15.95609        16.33412        -0.41552
C         17.25442        14.17891        -0.45833
C         17.27638        17.05290        -0.27933
C         16.00540        19.18993        -0.27434
C         17.23919        18.51655        -0.46159
C         18.17031         2.59724         1.71701
C         18.25239         3.92773         1.08712
C         19.33669         2.09893         2.36176
C         19.61489         4.56066         0.90533
C         18.54271         6.33479        -0.46614
C         18.54796         7.71855        -0.36476
C         19.78363         5.47925        -0.29677
C         19.78668         8.43379        -0.21542
C         18.44513        10.57422         0.13876
C         18.45657        12.04086        -0.05367
C         19.77524         9.84096         0.18674
C         19.75924        12.76224        -0.35822
C         18.47382        14.91518         0.09159
C         18.44783        16.39320        -0.06509
C         19.75559        14.17654         0.23872
C         19.75996        17.17697        -0.09770
C         18.41830        19.15001        -0.83046
C         19.59627        18.27417        -1.16636
C         20.58556         2.70438         2.22054
C         20.79279         3.83983         1.40997
C         22.07372         4.36994         1.09193
C         21.10668         6.21947        -0.25824
C         21.08242         7.78075        -0.34809
C         22.23648         5.50204         0.32045
C         22.28808         8.53454         0.04699
C         21.03613        10.63489         0.12428
C         21.02256        12.00174        -0.01612
C         22.26357         9.86918         0.26012
C         22.24219        12.79555        -0.04708
C         21.05714        14.98276         0.37815
C         20.98261        16.31098        -0.37582
C         22.26607        14.14118         0.05717
C         22.05002        16.87537        -0.99156
C         20.89412        18.98381        -1.44163
C         22.03424        18.26476        -1.43185
O          8.75721         3.00557        -1.82961
O         18.89136        14.35458         1.40084
O         21.32599         6.90787        -1.52019
O          5.44590        16.61128         2.41323
O         19.00698        10.11730         1.42662
O         13.50030        11.05919         1.23298
O          4.89228        13.31027         2.23079
O          8.97164        10.41724        -1.75792
O         18.72951         5.03588         1.95570
O         13.00732         3.59280        -1.93877
O          7.99995        16.60090        -1.14690
H          8.63709        16.21769        -1.78589
O         19.91541         4.58313        -1.45347
H         20.38584         5.09994        -2.14674
O         16.29430        15.08509         1.55617
H         16.44719        14.20461         1.95814
O          8.08870        17.04415         2.46891
H          7.33478        17.07534         3.09904
O          3.51217         3.21357         1.48238
H          2.70189         2.68071         1.63042
O         13.66836        16.27668         2.09292
H         12.84610        15.85044         2.41623
O         12.00557         8.66160        -2.54681
H         11.93699         7.76241        -2.93172
O          6.95460         8.32039        -1.74370
H          7.59246         8.90117        -2.22323
O         19.24538        17.56538        -2.40804
H         19.34788        18.19883        -3.14884
O          4.68447        19.09767         2.49123
H          5.05151        18.39521         3.07688
O         17.36598         4.99204        -2.06711
H         18.24822         4.54402        -2.12495
O          9.90787         3.88200         1.51103
H          9.53137         4.67618         1.96575
O         15.65549        16.25601        -1.86194
H         15.73394        17.16670        -2.22024
O          6.51322         7.90377         1.88647
H          5.75494         7.58396         2.42007
O         21.18960        15.36617         1.78241
H         20.37840        15.03014         2.23901
O         14.96329         8.72915        -2.54728
H         15.08208         7.84820        -2.96347
O         19.80974        12.93062        -1.80566
H         18.96680        13.36587        -2.09319
O         19.97568        17.80667         1.18216
H         20.44482        17.14966         1.75103
O         17.30431        14.22036        -1.90503
H         16.80476        15.01579        -2.22457
O          8.74446         6.37840         1.82885
H          7.99127         6.94858         2.14311
H          0.36134         1.57361        -1.25595
H          0.33582         4.02109        -0.97144
H          2.47954         0.29063        -1.14058
H          0.24092         5.85039        -0.35343
H          0.21765         8.26894        -0.10175
H          0.21458        10.17913         0.14975
H          0.26020        12.59996         0.30307
H          0.39677        14.46017        -0.17571
H          0.51161        16.90181        -0.46166
H          1.81494        18.98557        -0.53059
H          4.92091         0.31756        -0.99776
H          3.77967        20.29603         0.12596
H          7.31988         0.26147        -0.70922
H          6.20967        20.28266         0.39706
H          9.90626         0.25349        -0.22079
H          8.62127        20.31185         0.26225
H         12.33647         0.35191         0.15097
H         11.10952        20.31123         0.30503
H         14.63959         0.58611         1.12572
H         13.56908        20.30219         0.21521
H         16.92824         0.85760         2.02647
H         15.97524        20.28490        -0.37592
H         19.26588         1.14874         2.91134
H         18.44872        20.23756        -0.99816
H         21.46195         2.22116         2.67828
H         22.96525         3.86435         1.49175
H         23.24979         5.87897         0.12466
H         23.24191         7.99166         0.09251
H         23.20057        10.39025         0.49971
H         23.20107        12.26841        -0.16172
H         23.24126        14.65010         0.05906
H         22.98757        16.31508        -1.12117
H         20.88427        20.03679        -1.76290
H         22.99211        18.72308        -1.71879
