         349
 CSIRO Nanostructure Databank - Neutral Graphene Oxide Data Set
C          1.40652         3.62475         2.23145
C          0.17693         4.31888         2.19007
C          1.30046         6.51042         2.02837
C          0.09803         5.68292         1.99897
C          1.28415         7.97019         1.69698
C          0.09088         8.75500         1.94193
C          1.22380        10.86600         1.39468
C          0.04495        10.10450         1.73558
C          1.21793        12.24039         1.19292
C          0.05231        13.09450         1.34820
C          1.10098        14.90111        -0.02435
C          0.01219        14.36388         0.87604
C          1.14285        16.40985        -0.20779
C         -0.04148        17.09567        -0.44495
C          1.17540        19.16648        -0.86016
C         -0.02075        18.45810        -0.78173
C          1.13943        20.59328        -1.34713
C          0.01449        21.38333        -0.70944
C          1.12782        23.43545        -1.47697
C         -0.01530        22.71636        -0.79512
C          1.14017        24.93054        -1.27175
C         -0.10757        25.63436        -1.07145
C          1.05999        27.82572        -1.02848
C         -0.16284        26.97194        -0.90002
C          1.10925        28.92818         0.00071
C          3.83131         3.60357         1.76041
C          2.62516         4.28311         1.97277
C          3.79248         6.42905         1.32261
C          2.63372         5.76105         1.94452
C          3.60267         7.80356         0.73550
C          2.44141         8.59656         1.31326
C          3.70148        10.73765         0.71081
C          2.48366        10.07497         1.28495
C          3.58400        12.16031         0.29932
C          2.52676        12.98408         1.01460
C          3.61846        15.01804         0.09037
C          2.42937        14.33279         0.35774
C          3.62538        16.42843        -0.18240
C          2.38323        17.11420        -0.32144
C          3.67625        19.18400        -0.81180
C          2.40910        18.50905        -0.62562
C          3.67954        20.62597        -1.11672
C          2.45825        21.31463        -1.19128
C          3.65777        23.53524        -1.47154
C          2.43139        22.80199        -0.96619
C          3.61474        24.89718        -1.54590
C          2.34279        25.61282        -1.34253
C          3.53965        27.70993        -0.89891
C          2.35356        27.03743        -1.08275
C          3.55399        28.97954        -0.17627
C          2.28283        29.48247         0.34712
C          6.16089         3.57813         1.01109
C          5.01253         4.28057         1.31920
C          6.14435         6.41128         0.59889
C          4.94074         5.72260         1.05176
C          6.10908         7.85409         0.42621
C          4.91315         8.53712         0.55902
C          6.10951        10.69325        -0.22324
C          4.83025         9.94191         0.14422
C          6.12927        12.16447        -0.11986
C          4.85703        12.88238        -0.06519
C          6.09433        15.03420         0.14041
C          4.87032        14.33424         0.08474
C          6.08764        16.44966         0.00433
C          4.86540        17.11618        -0.28232
C          6.17349        19.10000        -1.19390
C          4.87726        18.50348        -0.65371
C          6.21856        20.63595        -0.97566
C          4.90125        21.31692        -1.28131
C          6.19062        23.47194        -1.89900
C          4.88856        22.73458        -1.69984
C          6.16160        24.99256        -1.96454
C          4.78952        25.71928        -2.04875
C          6.07929        27.88985        -1.08553
C          4.81655        27.14573        -1.41320
C          6.07331        29.24966        -0.34978
C          4.70845        29.61709         0.16365
C          8.61873         3.55468         0.47207
C          7.28782         4.21100         0.25132
C          8.56634         6.40933         0.19972
C          7.32467         5.71267         0.40086
C          8.57831         7.83872         0.10970
C          7.35002         8.56172         0.13697
C          8.59971        10.66682        -0.15977
C          7.37358         9.95671        -0.07505
C          8.61434        12.17474        -0.36979
C          7.32034        12.87160         0.01263
C          8.52650        14.99321         0.65593
C          7.31260        14.27664         0.25213
C          8.56169        16.50705         0.59698
C          7.28603        17.31474         0.32917
C          8.63158        19.20183        -0.58114
C          7.45051        18.51044        -0.58580
C          8.71462        20.57744        -1.09247
C          7.46946        21.24023        -1.70354
C          8.64753        23.46038        -1.51393
C          7.47629        22.76723        -1.61718
C          8.59009        24.92465        -1.08558
C          7.42673        25.73433        -1.65289
C          8.53849        27.71102        -0.36739
C          7.40399        27.18490        -1.19179
C          8.35174        28.79233         0.62895
C          7.12372        29.40468         0.72393
C         11.05668         3.53441         0.22909
C          9.80038         4.23516         0.26499
C         10.98840         6.39103        -0.13853
C          9.77977         5.69107         0.09306
C         11.03053         7.80039        -0.17988
C          9.80838         8.54154        -0.06333
C         11.09795        10.69922        -0.45178
C          9.80705         9.96626        -0.15121
C         11.11649        12.12309         0.04952
C          9.82573        12.79092         0.30716
C         11.09106        15.02423         1.06284
C          9.80487        14.21500         0.76986
C         11.06020        16.46987         0.49591
C          9.88431        17.15875         0.38323
C         11.14259        19.28417        -0.11726
C          9.80950        18.67783         0.26810
C         11.13244        20.78375        -0.31144
C          9.86516        21.30764        -0.95805
C         11.11033        23.22384        -1.75003
C          9.89994        22.70369        -1.37894
C         11.15388        25.35709        -1.44630
C          9.86905        25.75199        -1.04276
C         10.94080        27.50250         0.27118
C          9.78947        26.93040        -0.29467
C         10.75889        28.57855         1.21562
C          9.47668        29.13610         1.43660
C         13.48929         3.48336        -0.23525
C         12.24749         4.16325        -0.12951
C         13.52436         6.35313        -0.50619
C         12.20120         5.60791        -0.43971
C         13.52894         7.78970        -0.22441
C         12.30229         8.51147        -0.19268
C         13.55650        10.61695         0.11564
C         12.32867         9.91536        -0.06851
C         13.54096        12.03400         0.18483
C         12.30496        12.77656         0.25467
C         13.61800        14.97549         0.27662
C         12.37193        14.22339         0.67103
C         13.61328        16.45617         0.12895
C         12.38728        17.22711         0.65899
C         13.61254        19.35167        -0.04385
C         12.31388        18.62860         0.06157
C         13.62523        20.72852        -0.57859
C         12.43340        21.31441        -0.90146
C         13.67298        23.56213        -1.26022
C         12.43119        22.65252        -1.49774
C         13.60547        25.04118        -0.93214
C         12.34479        25.80320        -0.85147
C         13.38753        27.54622         0.60421
C         12.23537        26.94376         0.02788
C         13.19190        28.49229         1.66711
C         11.88762        28.95268         1.96757
C         15.96710         3.45846        -0.51923
C         14.72155         4.15821        -0.39517
C         15.98436         6.28795        -0.30902
C         14.76382         5.58603        -0.37875
C         15.98356         7.70229        -0.17110
C         14.77370         8.44303        -0.07652
C         16.02940        10.55058        -0.04560
C         14.79847         9.87992         0.09614
C         16.09075        12.01378         0.03858
C         14.78649        12.79491         0.19133
C         16.01378        14.90373        -0.56677
C         14.70296        14.17479        -0.44234
C         15.95424        16.32716        -0.76459
C         14.75714        17.08018        -0.28618
C         16.12579        19.27620        -0.59318
C         14.88099        18.55804        -0.20172
C         16.12196        20.67088        -0.66849
C         14.89331        21.44200        -0.72213
C         16.16726        23.62892        -1.09703
C         14.89465        22.83240        -0.81730
C         16.09195        25.05100        -0.54265
C         14.73437        25.66204        -0.44357
C         15.91963        27.63613         0.59019
C         14.68352        27.15000        -0.11489
C         15.54737        29.03963         2.29029
C         14.20583        28.94788         2.60381
C         18.41163         3.43485        -0.92705
C         17.17792         4.13611        -0.59207
C         18.44207         6.26834        -0.60009
C         17.22918         5.56539        -0.43452
C         18.46472         7.68338        -0.62427
C         17.30638         8.40195         0.01192
C         18.30684        10.49949        -0.97312
C         17.22037         9.84301        -0.38050
C         18.11352        11.89142        -1.28935
C         17.18343        12.67858        -0.66629
C         18.61317        14.86801        -0.72375
C         17.28228        14.15768        -0.59096
C         18.62224        16.35701        -0.94219
C         17.32581        17.12602        -0.94909
C         18.59647        19.20646        -0.32091
C         17.35359        18.53955        -0.62013
C         18.60514        20.62343        -0.21100
C         17.42477        21.36835        -0.69604
C         18.58522        23.53776        -0.01744
C         17.46665        22.87969        -0.74842
C         18.49275        24.87702         0.43311
C         17.26688        25.67626         0.16749
C         18.17335        27.62979         1.64995
C         17.04156        26.94872         0.92166
C         17.93678        28.59187         2.77674
C         16.66151        29.09185         3.15327
C         19.59137         4.07486        -1.04546
C         20.75595         6.27435        -1.52025
C         19.75126         5.52505        -0.67923
C         20.69290         7.61754        -1.65329
C         19.58295         8.39889        -1.11861
C         20.81693        10.54750        -1.33235
C         19.57195         9.83402        -1.21113
C         21.08255        11.90778        -1.28491
C         20.07773        12.92238        -1.43534
C         21.05072        14.88113        -0.25098
C         19.95737        14.19217        -0.90018
C         20.99865        16.21345         0.00586
C         19.88640        17.05084        -0.49759
C         20.98496        19.20312         0.15614
C         19.82042        18.49567        -0.17339
C         20.97181        20.58473         0.30634
C         19.78924        21.32509         0.08822
C         20.86041        23.43986         0.82938
C         19.75092        22.77913         0.26936
C         20.78442        24.76905         1.20998
C         19.58449        25.49122         1.08544
C         20.45177        27.17952         2.76101
C         19.50080        26.85950         1.68723
C         20.23962        28.23287         3.60945
C         19.00455        28.91755         3.62704
O          3.60188        10.58703         2.16616
O         17.03124        25.91514        -1.27519
O         16.46348        16.79133        -2.07647
O          8.37562        28.08083        -1.80551
O         11.18206        24.40911        -2.47456
O         11.12708        15.31262         2.42619
O         18.11134        14.57305         0.62990
O          9.61600        13.10948         1.71708
O         15.68114        12.61790         1.30982
O         12.77203         5.97587        -1.73405
O          7.07036        25.47941        -3.02358
O          5.44262        28.06794        -2.39342
O         19.57295        16.80224        -1.93730
O          2.16390         6.32507         3.21601
O          5.49535        22.89490        -3.06429
O          8.38119        15.82654         1.87530
O         17.85013        22.09593        -1.92653
O         13.33774        23.01776        -2.57865
O          3.81675        12.43870        -1.08460
O         18.97492        12.49496        -2.20505
O         19.27208        27.97284         0.75583
O         15.85609        28.98649         0.92192
O         13.43259        14.49631         1.63759
O          5.18720        10.17131        -1.24797
O         14.46591        19.10772         1.11292
O         16.12745        23.80860        -2.52873
H         16.59644        23.03977        -2.93053
O          0.94406        28.48531        -2.33775
H          1.79403        28.94524        -2.50911
O          8.21295        24.82026         0.33861
H          8.84323        24.21135         0.78068
O         17.58577         8.37295         1.46886
H         16.91126         8.93653         1.90610
O         20.29712         5.52614         0.69108
H         20.20485         6.43958         1.03832
O          8.77602        12.43381        -1.79099
H          8.09298        11.92777        -2.27906
O          4.50778        25.90975        -3.44453
H          5.30823        26.32485        -3.83923
O          3.14394         7.55158        -0.65417
H          3.90426         7.19446        -1.16250
O         14.25047        13.93242        -1.81700
H         14.46761        14.71806        -2.36324
O          6.41075        30.26144        -1.34578
H          6.13301        29.90101        -2.21895
O          0.80767        14.33613        -1.35768
H          1.55337        14.56914        -1.95161
O          6.41222        20.86210         0.45292
H          6.59765        20.00181         0.90141
O          0.87784        20.50620        -2.78220
H          0.92466        21.43111        -3.13692
O          2.41238        22.97786         0.48939
H          3.17725        22.49133         0.86422
O          6.91766        17.95638         1.60239
H          7.32699        17.41432         2.31847
O         14.64056        27.84037        -1.40081
H         15.42179        27.53236        -1.91270
O         12.57626        17.41752         2.07100
H         12.17512        16.61231         2.52385
O         11.10004        21.35634         1.05781
H         11.84291        20.95053         1.55855
O          7.43701        20.93128        -3.12160
H          6.75963        21.53276        -3.52361
O          1.06497        23.21250        -2.91574
H          0.41311        23.83671        -3.29781
O         11.17640        10.78367        -1.92210
H         11.26057         9.86897        -2.26710
O          6.97781         3.97166        -1.18734
H          7.73292         4.32353        -1.70631
O          9.52265        19.14195         1.61816
H          9.80463        20.08641         1.67230
O          3.03835        13.22720         2.36361
H          3.22973        12.34135         2.76126
O          6.12268        18.75288        -2.59188
H          6.76472        19.33403        -3.07678
H          1.40158         2.53037         2.33673
H         -0.75304         3.73380         2.23582
H         -0.87428         6.15114         1.78993
H         -0.82131         8.23119         2.26031
H         -0.90457        10.63812         1.88191
H         -0.81797        12.70094         1.89637
H         -0.88223        14.97970         1.05279
H         -1.00263        16.56424        -0.41044
H         -0.96921        18.95708        -1.02273
H         -0.79895        20.84735        -0.19796
H         -0.83797        23.27706        -0.32908
H         -1.04085        25.05475        -1.03419
H         -1.12677        27.47476        -0.73397
H          0.16068        29.32895         0.38796
H          3.85488         2.50667         1.84721
H          2.32226        30.33304         1.04442
H          6.19113         2.48971         1.17245
H          4.64608        30.53627         0.76704
H          8.64027         2.46228         0.60649
H          6.98024        30.21808         1.45186
H         11.05481         2.45290         0.43203
H          9.36148        29.92324         2.19658
H         13.49816         2.38871        -0.12294
H         11.76876        29.68730         2.77783
H         15.95162         2.36270        -0.61686
H         13.87294        29.17948         3.62673
H         18.34170         2.35790        -1.14444
H         16.53486        29.47753         4.17659
H         20.49803         3.51829        -1.32751
H         21.60906         5.71775        -1.93703
H         21.47439         8.13846        -2.22585
H         21.71233         9.90867        -1.26673
H         22.12164        12.21537        -1.09154
H         21.95032        14.30620         0.01608
H         21.83089        16.69793         0.53405
H         21.93871        18.66952         0.26271
H         21.91741        21.09113         0.53634
H         21.80203        22.90349         0.99893
H         21.68140        25.24176         1.62794
H         21.34865        26.56293         2.90163
H         20.99670        28.48583         4.36486
H         18.83455        29.67284         4.40781
