         424
 CSIRO Nanostructure Databank - Neutral Graphene Oxide Data Set
C          1.27532         2.17447        -0.60290
C          1.32829         3.41015        -1.20191
C          2.44828         1.42884        -0.34243
C          2.63766         3.90052        -1.76325
C          1.66344         5.93818        -2.79018
C          1.74799         7.26650        -3.19068
C          2.68595         5.38415        -2.01976
C          2.79159         8.08103        -2.71231
C          1.42362        11.18566        -2.48998
C          1.29793        12.38882        -1.73861
C          2.53791        10.40825        -2.33605
C          2.40922        12.92792        -1.10670
C          1.18910        14.97924        -0.31964
C          1.17342        16.33693         0.06354
C          2.38281        14.30015        -0.62660
C          2.33757        17.09244         0.05397
C          2.38872        18.51172         0.33198
C          3.72628         2.04655        -0.46812
C          3.80119         3.38418        -0.97192
C          4.91199         1.40521        -0.05262
C          4.99190         4.13782        -0.87438
C          3.81398         6.17889        -1.65348
C          3.82184         7.59763        -1.89399
C          5.00440         5.53212        -1.19325
C          4.85385         8.42581        -1.10929
C          3.55653        10.68712        -1.24567
C          3.66607        12.20175        -1.10143
C          4.91630         9.93662        -1.49231
C          4.86527        12.84543        -0.84730
C          3.62638        14.97984        -0.54192
C          3.58370        16.43568        -0.36501
C          4.86288        14.29397        -0.63975
C          4.87952        17.16795        -0.15967
C          3.55763        19.17390         0.53391
C          4.86167        18.43037         0.67571
C          6.15230         2.08839        -0.07537
C          6.18196         3.47489        -0.43096
C          7.35363         1.43197         0.28649
C          7.38911         4.23311        -0.27844
C          6.31335         6.26154        -1.35505
C          6.23251         7.76901        -1.14792
C          7.40811         5.60349        -0.55968
C          7.36515         8.48853        -0.89609
C          6.12173        10.65862        -0.87412
C          6.11001        12.08178        -0.75493
C          7.32955         9.94267        -0.71797
C          7.32365        12.77755        -0.50783
C          6.08467        15.00040        -0.46808
C          6.12660        16.38207        -0.17585
C          7.37406        14.27825        -0.73675
C          7.33060        17.10223         0.00507
C          6.11329        19.22186         0.43634
C          7.31727        18.54200         0.23384
C          8.58019         2.13360         0.34097
C          8.59050         3.54934         0.13134
C          9.80476         1.45422         0.57887
C          9.82323         4.26738         0.20086
C          8.53837         6.44347        -0.04931
C          8.69673         7.74677        -0.85202
C          9.83666         5.67578         0.04426
C          9.85540         8.52798        -0.26745
C          8.54352        10.63950        -0.40553
C          8.51266        12.06038        -0.32229
C          9.79164         9.94937        -0.20027
C          9.76260        12.77540         0.01222
C          8.56833        15.00662        -0.17952
C          8.57719        16.39544        -0.03232
C          9.79773        14.27119         0.08735
C          9.82084        17.11146         0.13574
C          8.56380        19.22856         0.25951
C          9.80459        18.54697         0.22070
C         11.02898         2.14246         0.59220
C         11.04602         3.56577         0.42429
C         12.26976         1.46254         0.78668
C         12.27669         4.27990         0.50113
C         11.04398         6.39340         0.15052
C         11.00681         7.83702         0.09866
C         12.26969         5.69941         0.39173
C         12.19263         8.58339         0.64280
C         11.02781        10.68817        -0.06888
C         11.03713        12.07199        -0.13496
C         12.29056         9.98831         0.08964
C         12.29519        12.83286        -0.44805
C         11.08969        14.98930         0.02091
C         11.05881        16.42241         0.11168
C         12.28897        14.29563        -0.07480
C         12.28573        17.13989         0.15115
C         11.03274        19.24966         0.26544
C         12.27560        18.57435         0.22362
C         13.47301         2.14757         0.83411
C         13.50361         3.56760         0.70701
C         14.73425         1.35853         1.10061
C         14.74882         4.28539         0.76220
C         13.50762         6.43257         0.55245
C         13.48795         7.81629         0.59396
C         14.75288         5.69786         0.70070
C         14.72583         8.61462         0.89858
C         13.49455        10.67553         0.08043
C         13.54813        12.10286        -0.04832
C         14.78542         9.88945         0.05102
C         14.74309        12.81461         0.10244
C         13.53657        14.98757        -0.00182
C         13.52715        16.43349         0.10877
C         14.75835        14.26132         0.06087
C         14.72788        17.15630         0.15054
C         13.51056        19.27295         0.25684
C         14.73643        18.58321         0.23332
C         16.01383         2.13580         0.90276
C         15.99188         3.56420         0.84205
C         17.21432         1.44897         0.85995
C         17.22745         4.27212         0.82376
C         15.99310         6.41754         0.76885
C         16.00878         7.83520         0.75619
C         17.22946         5.70459         0.80777
C         17.22141         8.54607         0.71475
C         16.01483        10.69768         0.38708
C         15.98805        12.10543         0.33235
C         17.22144         9.99682         0.60170
C         17.20529        12.83477         0.46829
C         15.99817        14.95908         0.21332
C         16.04871        16.45473        -0.01960
C         17.19652        14.28032         0.43129
C         17.10580        17.13708         0.84370
C         15.99650        19.28203         0.27933
C         17.20130        18.61568         0.51020
C         18.46903         2.13161         0.81150
C         18.46340         3.56411         0.83425
C         19.69342         1.43542         0.78176
C         19.70117         4.27478         0.88242
C         18.45997         6.41700         0.86079
C         18.46008         7.84308         0.81015
C         19.69811         5.70206         0.93586
C         19.69473         8.56146         0.87167
C         18.45194        10.71080         0.61293
C         18.42445        12.12287         0.52727
C         19.70312         9.98483         0.73660
C         19.68038        12.87623         0.36328
C         18.44045        15.02719         0.65425
C         18.41927        16.40328         0.78376
C         19.70306        14.31877         0.65908
C         19.62674        17.16294         1.12213
C         18.44589        19.27945         0.54490
C         19.67126        18.61751         0.82628
C         20.93430         2.12050         0.80390
C         20.93269         3.56076         0.87400
C         22.16783         1.43264         0.79182
C         22.16231         4.26768         0.96841
C         20.92707         6.40710         1.08125
C         20.92236         7.85738         1.07022
C         22.13783         5.67641         1.14147
C         22.12996         8.58369         1.16735
C         20.93344        10.67052         0.73481
C         20.98019        12.11263         0.45107
C         22.15263         9.98702         0.97004
C         22.20962        12.86034         0.74113
C         20.91773        14.96801         0.84113
C         20.94470        16.40301         1.17223
C         22.18333        14.26836         0.79534
C         22.19795        17.15050         1.03621
C         20.90364        19.26949         0.80973
C         22.17128        18.59308         0.97090
C         23.40950         2.11765         0.84735
C         23.41726         3.55727         0.93601
C         24.63701         1.41598         0.84585
C         24.65070         4.25043         0.96187
C         23.40004         6.36329         1.44311
C         23.39186         7.89226         1.46779
C         24.67511         5.68837         1.14916
C         24.66095         8.58726         1.22524
C         23.40265        10.71001         0.98402
C         23.41935        12.13569         0.89077
C         24.63409        10.00429         1.06692
C         24.65382        12.85606         0.91805
C         23.41163        14.99442         0.90443
C         23.41841        16.43569         0.97112
C         24.64307        14.28912         0.90781
C         24.65524        17.13600         1.01087
C         23.37546        19.29306         0.98175
C         24.66288        18.60735         1.34411
C         25.87900         2.09248         0.89649
C         25.88371         3.53084         0.91013
C         27.11818         1.39813         0.92110
C         27.12656         4.22579         0.94212
C         25.85269         6.41512         1.10750
C         25.86502         7.85906         1.17575
C         27.14407         5.72266         0.72277
C         27.10705         8.57967         1.01981
C         25.86803        10.71617         0.95612
C         25.88036        12.14922         0.90561
C         27.07528         9.98510         0.89062
C         27.11651        12.87657         0.87693
C         25.87750        15.00749         0.90523
C         25.87451        16.43573         0.92933
C         27.11486        14.30363         0.88736
C         27.12880        17.14381         0.89550
C         25.91272        19.28857         0.85733
C         27.10518        18.60495         0.75882
C         28.34477         2.08320         1.00988
C         28.32440         3.52247         1.04006
C         29.59756         1.39009         0.96447
C         29.59908         4.24540         1.23738
C         28.33733         6.41228         1.39904
C         28.35576         7.86998         1.02385
C         29.62546         5.71274         1.05350
C         29.56767         8.50468         0.78247
C         28.31385        10.72744         0.62077
C         28.35072        12.18862         0.83016
C         29.58226         9.95546         0.54286
C         29.57037        12.88699         0.82236
C         28.35042        15.01618         0.86545
C         28.33195        16.44689         0.87510
C         29.58647        14.30176         0.81649
C         29.62917        17.19323         1.06659
C         28.34779        19.26335         0.45365
C         29.57820        18.60318         0.51560
C         30.84415         2.03908         0.96601
C         30.89336         3.49958         1.23846
C         32.06140         1.36379         0.79633
C         32.19410         4.30127         1.03535
C         30.77066         6.36276         0.67810
C         30.80807         7.80579         0.62795
C         31.94766         5.55590         0.16208
C         32.01728         8.49996         0.34541
C         30.86498        10.64957         0.82709
C         30.85631        12.15133         0.90385
C         32.07969         9.92265         0.44024
C         32.10782        12.84181         0.58324
C         30.84364        15.00605         0.66971
C         30.85562        16.41633         0.64426
C         32.07471        14.27929         0.49685
C         32.05025        17.11506         0.38488
C         30.79594        19.25352         0.25007
C         32.04214        18.56202         0.26150
C         33.29127         2.06590         0.57575
C         33.28666         3.47651         0.42169
C         34.51957         1.37894         0.46053
C         34.40261         4.14432        -0.33481
C         33.23120         6.34994         0.00923
C         33.23311         7.77581         0.05482
C         34.41770         5.65654        -0.21550
C         34.43113         8.49523        -0.20316
C         33.26470        10.64608         0.22759
C         33.27819        12.09133         0.32479
C         34.45798         9.93275        -0.13071
C         34.50989        12.77533         0.04799
C         33.27895        14.98391         0.30266
C         33.27881        16.39752         0.23236
C         34.58613        14.23788         0.42455
C         34.50866        17.11144         0.04739
C         33.25402        19.23806         0.08280
C         34.49633        18.54282        -0.00472
C         35.74574         2.11775         0.35192
C         35.69006         3.52224         0.08955
C         36.97167         1.44280         0.46174
C         36.97271         4.32216        -0.00724
C         35.62658         6.36737        -0.49601
C         35.62160         7.78762        -0.55627
C         36.85038         5.66296        -0.72185
C         36.82555         8.47960        -0.91002
C         35.64787        10.63724        -0.40657
C         35.64389        12.07224        -0.33359
C         36.85847         9.91768        -0.76717
C         36.86112        12.79937        -0.85783
C         35.75577        14.97374        -0.16874
C         35.73527        16.39940        -0.15340
C         36.91563        14.27758        -0.52920
C         36.93631        17.11466        -0.40071
C         35.71187        19.23895        -0.16983
C         36.93633        18.55111        -0.35384
C         38.26696         2.13950         0.17310
C         37.97561         3.38608        -0.68546
C         39.27912         1.24871        -0.50857
C         39.19120         4.06776        -1.25306
C         37.96398         6.29506        -1.30086
C         37.95533         7.75388        -1.40142
C         39.10494         5.41484        -1.69335
C         39.09649         8.55703        -1.80413
C         38.07005        10.61387        -0.90675
C         38.14892        12.06998        -0.48164
C         39.21093         9.93819        -1.41694
C         39.35859        12.81685        -1.00484
C         38.12572        14.97171        -0.75696
C         38.14654        16.40465        -0.67771
C         39.35594        14.23811        -1.01804
C         39.34242        17.12603        -0.88630
C         38.16308        19.24044        -0.46874
C         39.37165        18.54363        -0.70107
C         40.22210         1.78899        -1.30231
C         40.24070         3.20748        -1.65727
C         41.26363         3.68071        -2.49715
C         40.07270         5.77271        -2.66073
C         40.12966         8.07679        -2.64750
C         41.15152         4.95750        -3.03022
C         41.31795         8.75863        -2.86763
C         40.43207        10.66194        -1.65505
C         40.51011        12.10502        -1.38960
C         41.48922        10.03207        -2.31414
C         41.69238        12.82961        -1.65648
C         40.54909        14.94336        -1.31239
C         40.56401        16.44942        -1.44717
C         41.71102        14.21795        -1.60121
C         41.82852        17.12253        -0.98178
C         40.62732        19.21656        -0.68649
C         41.82736        18.47217        -0.72291
O         20.40205        12.48687        -0.86174
O         39.92451         6.92979        -3.41864
O         30.93171        11.30705         2.13526
O         30.26716         3.83440         2.52278
O         20.21272        16.76959         2.41407
O         28.93160        10.36973        -0.70485
O          4.24967        17.22579        -1.46146
O         23.37215         7.10609         2.70840
O          2.71127         9.38118        -3.22557
O          9.67820        13.45464         1.34958
O          8.19037         6.85929         1.31722
H          8.20042         6.06031         1.88518
O         34.86758        14.23241         1.87615
H         34.12795        13.75880         2.31427
O         29.77376        17.34875         2.52407
H         28.99595        17.85644         2.84067
O         14.94908         9.43947        -1.32789
H         15.14576        10.22377        -1.88164
O          9.08072         7.42095        -2.20763
H          8.33124         6.91867        -2.62195
O         34.23590         3.83521        -1.78017
H         35.10606         3.50989        -2.10825
O         40.50549        16.69665        -2.91347
H         40.51696        17.67069        -3.03437
O         31.56172         5.04305        -1.13904
H         31.57362         5.78138        -1.78255
O         11.91384         8.79106         2.07875
H         12.73386         9.19150         2.46074
O          4.48141         8.33513         0.29447
H          4.47965         7.38529         0.53893
O         14.63957         9.06060         2.29768
H         14.81248         8.28212         2.86876
O          5.19103         9.95993        -2.91356
H          5.45016        10.87016        -3.16814
O         32.66209         4.74019         2.33130
H         31.91111         4.60493         2.95962
O          2.92381        10.24713        -0.01764
H          3.57895        10.31445         0.70875
O         12.32512        12.85499        -1.94232
H         12.34679        11.92082        -2.24400
O         38.89441         2.54997         1.44055
H         38.93695         1.75867         2.01726
O         37.27115         2.91719        -1.88119
H         37.87661         2.31380        -2.36395
O         28.11488         6.30305         2.82982
H         28.93321         6.57740         3.29297
O         38.23533        12.09416         0.97004
H         39.05412        11.62635         1.23549
O         16.46228        16.64385        -1.40682
H         15.78766        16.22623        -1.98219
O          7.57358        14.37612        -2.21427
H          7.38635        15.30520        -2.47147
O          2.76679         3.26388        -3.10124
H          2.73020         2.29377        -2.95644
O         27.32806         5.92488        -0.70931
H         26.58657         5.48691        -1.17688
O         24.72826        18.66752         2.83673
H         23.90460        18.25408         3.17530
O         36.77955        12.72208        -2.31205
H         35.96431        13.18309        -2.59986
O         37.40267         4.71985         1.31833
H         37.92329         3.97705         1.71387
O          4.91435        17.95012         2.07242
H          5.06701        18.72835         2.64864
O          6.70498         6.09924        -2.79626
H          5.99413         6.51072        -3.33508
O         16.66192        17.03432         2.22531
H         17.39356        17.34217         2.80108
O         14.74534         0.15023         0.32693
H         14.75004         0.39591        -0.62070
H          0.30288         1.75221        -0.30854
H          0.40645         3.97558        -1.39840
H          2.37726         0.42088         0.08835
H          0.82810         5.31077        -3.12860
H          0.98613         7.71061        -3.84375
H          0.65809        10.91411        -3.22811
H          0.36186        12.95987        -1.79991
H          0.23589        14.43326        -0.34597
H          0.21886        16.80408         0.34629
H          1.43504        19.06160         0.36777
H          4.87397         0.36360         0.29913
H          3.54713        20.25685         0.73285
H          7.33466         0.35508         0.50875
H          6.12022        20.30799         0.61461
H          9.79352         0.36388         0.72284
H          8.56287        20.32418         0.36439
H         12.26969         0.36855         0.89981
H         11.01973        20.34819         0.32599
H         14.70629         1.03089         2.17940
H         13.50512        20.37124         0.31929
H         17.20284         0.34927         0.88658
H         15.99362        20.37727         0.16565
H         19.68750         0.33541         0.75927
H         18.47425        20.35692         0.31784
H         22.16770         0.33343         0.74132
H         20.92480        20.35567         0.63237
H         24.62494         0.31621         0.81435
H         23.36286        20.39244         0.92897
H         27.11504         0.29860         0.88052
H         25.89613        20.38009         0.71560
H         29.57804         0.29605         0.84286
H         28.32379        20.33104         0.18483
H         32.06542         0.26608         0.71854
H         30.78992        20.32579        -0.00049
H         34.55372         0.28761         0.58514
H         33.25364        20.33455        -0.00614
H         36.97520         0.35804         0.64879
H         35.70827        20.33906        -0.17004
H         39.29921         0.17692        -0.25799
H         38.18205        20.33523        -0.36233
H         41.00874         1.15492        -1.74019
H         42.08787         3.01634        -2.79172
H         41.86730         5.32584        -3.77608
H         42.08631         8.32154        -3.51751
H         42.43030        10.56013        -2.50923
H         42.62080        12.31003        -1.92543
H         42.64442        14.74447        -1.84192
H         42.78021        16.57372        -1.00247
H         40.65609        20.30075        -0.51132
H         42.77741        18.98750        -0.51693
