         344
 CSIRO Nanostructure Databank - Neutral Graphene Oxide Data Set
C          1.39134         2.01399         1.17939
C          1.34021         3.41130         1.06004
C          2.59675         1.34345         1.07214
C          2.50556         4.17156         0.84564
C          1.26857         6.32472         0.70420
C          1.23493         7.72357         0.64977
C          2.46514         5.61215         0.74939
C          2.41846         8.49229         0.52456
C          1.18201        10.65985         0.30509
C          1.16348        12.10032         0.25583
C          2.34896         9.94596         0.38944
C          2.30073        12.83947         0.05622
C          1.14126        15.05745         0.09912
C          1.16354        16.44315         0.17781
C          2.33416        14.29935         0.04659
C          2.39000        17.13774         0.25395
C          2.43238        18.58394         0.36465
C          3.80098         2.06431         0.82690
C          3.76405         3.49340         0.72419
C          5.02264         1.37630         0.67469
C          4.96835         4.21384         0.43595
C          3.75752         6.37815         0.89947
C          3.66600         7.82463         0.48336
C          4.96830         5.64778         0.36432
C          4.87123         8.53607         0.15715
C          3.64024        10.72809         0.51471
C          3.57038        12.06939        -0.24442
C          4.83732         9.92141         0.06793
C          4.82284        12.87410        -0.02358
C          3.57769        14.99874         0.05346
C          3.59289        16.39995         0.19507
C          4.85320        14.26382        -0.00471
C          4.91556        17.09019         0.44616
C          3.60820        19.27239         0.36156
C          4.88192        18.59504         0.28048
C          6.21051         2.06450         0.36175
C          6.17592         3.49966         0.21224
C          7.43239         1.37184         0.20903
C          7.37259         4.19656        -0.11588
C          6.11825         6.34173        -0.00408
C          6.12156         7.80571        -0.09819
C          7.35033         5.62245        -0.24329
C          7.28454         8.47636        -0.40993
C          6.01853        10.67786        -0.34363
C          6.07349        12.11624         0.04801
C          7.31229         9.94122        -0.57021
C          7.38422        12.83616        -0.03811
C          6.09497        14.97096        -0.10857
C          6.02134        16.45142        -0.39896
C          7.35510        14.30836        -0.20628
C          7.32685        17.17185        -0.22332
C          6.06975        19.26079         0.16946
C          7.33444        18.54691         0.02385
C          8.62253         2.03497        -0.16308
C          8.58789         3.47970        -0.34728
C          9.83492         1.32565        -0.24401
C          9.77476         4.19504        -0.59218
C          8.55683         6.31231        -0.49629
C          8.52868         7.76673        -0.87736
C          9.78091         5.61801        -0.59265
C          9.82317         8.49678        -0.58754
C          8.59579        10.66263        -0.43776
C          8.61530        12.07582        -0.37665
C          9.81669         9.92902        -0.45974
C          9.82249        12.78269        -0.44336
C          8.54931        14.98674        -0.43724
C          8.56665        16.47436        -0.69322
C          9.83606        14.26106        -0.74955
C          9.83116        17.13648        -0.21211
C          8.56650        19.24103         0.09100
C          9.80766        18.53927         0.04795
C         11.02581         1.91960        -0.79943
C         11.01184         3.49190        -0.94389
C         12.35059         1.29160        -0.69810
C         12.28604         4.19872        -0.81376
C         11.03534         6.33218        -0.71587
C         11.02397         7.78841        -0.63602
C         12.24237         5.62266        -0.74499
C         12.27849         8.49951        -0.53123
C         11.04195        10.64080        -0.34356
C         11.05199        12.07996        -0.35787
C         12.27424         9.91202        -0.34434
C         12.25953        12.81042        -0.20129
C         11.06872        14.96987        -0.22534
C         11.04262        16.40520        -0.06942
C         12.26835        14.23347        -0.08338
C         12.23809        17.10283         0.23612
C         11.02264        19.22336         0.28341
C         12.25163        18.52819         0.33077
C         13.50119         2.01558        -0.80471
C         13.50985         3.47220        -0.75605
C         14.82532         1.30495        -0.97801
C         14.74295         4.15053        -0.50833
C         13.55970         6.34057        -0.93330
C         13.51243         7.80707        -0.57872
C         14.67850         5.62593        -0.17995
C         14.72582         8.50017        -0.45162
C         13.50574        10.61356        -0.24370
C         13.49437        12.05679         0.19728
C         14.70729         9.91781        -0.32907
C         14.77865        12.80355        -0.06883
C         13.52539        14.91776         0.14310
C         13.51923        16.37237         0.55174
C         14.74799        14.24648         0.04867
C         14.70711        17.13326        -0.04059
C         13.48297        19.23598         0.48452
C         14.73892        18.58554         0.39022
C         15.93317         1.97008        -0.15123
C         15.96256         3.47137        -0.35504
C         17.26491         1.31281        -0.33709
C         17.19912         4.17524        -0.26433
C         15.99815         6.34190        -0.29950
C         15.99877         7.77224        -0.33263
C         17.21196         5.62153        -0.21406
C         17.18110         8.45787        -0.08017
C         16.00612        10.65793        -0.49595
C         15.96791        12.11776        -0.13109
C         17.15733         9.91076         0.12750
C         17.23788        12.80663        -0.00461
C         16.01079        14.95672         0.03083
C         16.01878        16.41085         0.14226
C         17.21784        14.25454         0.03366
C         17.18740        17.10289         0.23827
C         15.93524        19.25634         0.55433
C         17.24262        18.53180         0.73094
C         18.44925         2.01919        -0.33027
C         18.44294         3.47900        -0.27250
C         19.70665         1.33738        -0.37308
C         19.66599         4.18538        -0.30620
C         18.45165         6.30921        -0.09492
C         18.42893         7.74007         0.36166
C         19.67919         5.62479        -0.22460
C         19.70125         8.51164         0.07448
C         18.44145        10.65218         0.31755
C         18.43044        12.11448         0.12135
C         19.71385         9.90684         0.16037
C         19.71444        12.82599         0.45313
C         18.48396        14.95199         0.02337
C         18.47426        16.44504        -0.19539
C         19.68217        14.28146         0.07803
C         19.71039        17.10118         0.41243
C         18.48553        19.25494         0.25810
C         19.69533        18.60019         0.17033
C         20.92087         2.02431        -0.39714
C         20.91721         3.48431        -0.40089
C         22.15426         1.32097        -0.36264
C         22.11315         4.19234        -0.51743
C         20.91137         6.34853        -0.30160
C         20.90880         7.79234        -0.19226
C         22.14421         5.63439        -0.49534
C         22.10735         8.51979        -0.34151
C         20.92447        10.65221        -0.02245
C         20.94384        12.08199        -0.00914
C         22.13341         9.92748        -0.24103
C         22.13162        12.79308        -0.24131
C         20.93361        14.99437        -0.14635
C         20.93166        16.38286        -0.11479
C         22.15482        14.24128        -0.32723
C         22.08453        17.14695        -0.55509
C         20.93718        19.28116        -0.03014
C         22.14801        18.60225        -0.26832
C         23.38738         1.98841        -0.45909
C         23.36682         3.44185        -0.74818
C         24.61498         1.33340        -0.31066
C         24.67604         4.18799        -0.76069
C         23.37128         6.33166        -0.58691
C         23.37026         7.83054        -0.79352
C         24.64198         5.66075        -0.57265
C         24.59199         8.46370        -0.09929
C         23.38579        10.65648        -0.29825
C         23.37618        12.07749        -0.32513
C         24.61587         9.96596        -0.23495
C         24.61412        12.78035        -0.28168
C         23.37887        14.91440        -0.49390
C         23.39618        16.36159        -0.75682
C         24.62894        14.22678        -0.38742
C         24.65923        17.09714        -0.61766
C         23.39303        19.24434        -0.29734
C         24.64126        18.55797        -0.48522
C         25.86356         2.02802        -0.25705
C         25.92147         3.45230        -0.44370
C         27.04760         1.34181         0.06982
C         27.12624         4.14044        -0.31586
C         25.84316         6.33673        -0.42852
C         25.89740         7.83699        -0.57954
C         27.13293         5.61773        -0.46895
C         27.08257         8.52793         0.06278
C         25.83446        10.65545        -0.08375
C         25.81652        12.07040        -0.09019
C         27.07570         9.89621         0.16276
C         27.05062        12.83657         0.18150
C         25.84425        14.94488        -0.43481
C         25.83632        16.37732        -0.53728
C         27.11647        14.25723        -0.26061
C         27.13566        17.11246        -0.32551
C         25.83869        19.25338        -0.46458
C         27.12182        18.56263        -0.84859
C         28.25645         2.03274         0.29113
C         28.31035         3.45182         0.10398
C         29.42669         1.34708         0.74491
C         29.52249         4.14461         0.39216
C         28.38881         6.37668        -0.16405
C         28.24900         7.71583         0.55427
C         29.63847         5.59349         0.13554
C         29.54871         8.49307         0.68191
C         28.30282        10.60023         0.51622
C         28.29751        12.08539         0.50044
C         29.48972         9.94030         0.76265
C         29.60237        12.71981         0.13623
C         28.32162        14.90577        -0.36674
C         28.36456        16.34828        -0.82849
C         29.61110        14.17193        -0.29940
C         29.61720        17.08132        -0.42166
C         28.37305        19.22255        -0.33830
C         29.57095        18.48808        -0.20309
C         30.56391         2.04118         1.07959
C         30.62537         3.45949         0.93280
C         31.75139         4.19828         1.46712
C         30.83752         6.34020         0.67017
C         30.74537         7.82384         0.83121
C         31.81914         5.55418         1.43692
C         31.97296         8.57463         1.01724
C         30.70355        10.71584         1.27796
C         30.82921        12.10784         0.66943
C         31.97633         9.91527         1.17436
C         31.97638        12.84391         0.65626
C         30.88681        14.90594        -0.16751
C         30.92854        16.36620        -0.61041
C         32.00088        14.22032         0.22342
C         32.09460        17.14428        -0.08232
C         30.77838        19.17720         0.15673
C         31.99501        18.48161         0.23568
O         22.56736        16.78400        -1.88788
O         27.54050        12.69983         1.59205
O         17.57303        10.27976         1.49262
O         27.99173         6.23859        -1.55340
O         10.85383         2.60700        -2.08539
O         29.67130        13.06407        -1.28776
O         24.03508         3.78162        -2.02086
O         30.75394         5.94284        -0.75124
O          6.48812        10.42209        -1.71177
O          6.85824        12.37819         1.26935
O          9.97999        14.31970        -2.22287
H          9.65862        15.21635        -2.50267
O          5.67383        16.57890        -1.82414
H          4.80364        16.14290        -1.95487
O         13.42309        11.99379         1.67681
H         14.21323        11.50122         1.98776
O          8.43217         7.77931        -2.35287
H          7.51171         7.54180        -2.59473
O          5.27355        16.82534         1.83189
H          4.55540        17.17308         2.40026
O         24.50726         8.16327         1.31902
H         23.70292         8.59898         1.67296
O         27.89491         7.30796         1.92844
H         27.45632         8.06901         2.36603
O         27.31149        17.19134         1.11652
H         26.53688        17.66321         1.48833
O         14.48124        17.13624        -1.48182
H         15.17066        17.69608        -1.89644
O         13.68460        16.39709         2.00031
H         12.98202        15.84104         2.39740
O          3.81924        11.05227         1.92142
H          3.95259        10.21568         2.41370
O         16.30813        10.61832        -1.93228
H         15.55512        11.02343        -2.41204
O         19.80789        12.79998         1.93036
H         18.99256        13.21764         2.28206
O         27.18228        18.63656        -2.30300
H         27.63748        17.81882        -2.63256
O          8.54634        16.63874        -2.18740
H          7.59670        16.57965        -2.45502
O         31.11050        16.27764        -2.10650
H         31.38238        17.17203        -2.40783
O         15.54752         1.75733         1.25059
H         16.28264         2.08150         1.81236
O         23.42219         8.06093        -2.22493
H         24.35707         7.92403        -2.52094
O         15.17184         1.32660        -2.36921
H         15.10429         2.24978        -2.68995
O          3.99058         6.42856         2.37350
H          3.15358         6.73664         2.78297
O         28.35944        16.27481        -2.29376
H         29.28313        16.02471        -2.55816
O         14.31401         5.70121         1.23651
H         15.03385         5.28395         1.75507
O         13.89140         6.25482        -2.34823
H         13.15524         6.65285        -2.85846
O         30.46626        10.93400         2.70786
H         30.37201        10.05435         3.12993
O         19.65174        16.88128         1.85833
H         20.45473        17.27803         2.25659
O          3.53417        11.72123        -1.66144
H          3.47659        12.54947        -2.18118
O         18.33142         7.67044         1.83944
H         18.12534         8.59400         2.13528
O         26.05416         8.08944        -2.01150
H         26.83674         7.55090        -2.29512
O         18.55297        16.68497        -1.63317
H         17.85988        16.14441        -2.06672
O         17.40101        18.42844         2.19641
H         18.16935        17.81987         2.35009
H          0.46328         1.45418         1.36136
H          0.36666         3.90939         1.16113
H          2.63733         0.24847         1.16060
H          0.30928         5.78846         0.69355
H          0.25692         8.22208         0.65002
H          0.20828        10.14862         0.31001
H          0.18921        12.59263         0.39098
H          0.16964        14.54555         0.07259
H          0.22008        17.00690         0.20675
H          1.47611        19.12492         0.41397
H          5.04261         0.28131         0.77887
H          3.60400        20.37256         0.39118
H          7.45013         0.28183         0.35685
H          6.08927        20.36159         0.14945
H          9.89362         0.31122         0.17812
H          8.57069        20.32576         0.27133
H         12.40176         0.19573        -0.60125
H         11.01041        20.31475         0.42042
H         14.73198         0.23275        -0.67603
H         13.44974        20.31986         0.67476
H         17.29170         0.21328        -0.37974
H         15.91322        20.32881         0.80841
H         19.70834         0.23725        -0.38300
H         18.45213        20.35027         0.14548
H         22.14001         0.22770        -0.23871
H         20.94713        20.38101         0.02180
H         24.61825         0.24727        -0.13327
H         23.42881        20.33243        -0.13526
H         27.01638         0.25202         0.21724
H         25.82948        20.34993        -0.36644
H         29.38761         0.25459         0.86326
H         28.40698        20.31827        -0.23028
H         31.44197         1.50974         1.47438
H         32.52409         3.62697         2.00333
H         32.62061         6.07993         1.97614
H         32.92460         8.02358         1.00042
H         32.93224        10.43750         1.32310
H         32.91808        12.42440         1.03759
H         32.97199        14.73169         0.27814
H         33.08138        16.66209        -0.05146
H         30.73925        20.25291         0.37467
H         32.89755        19.02350         0.55542
