         430
 CSIRO Nanostructure Databank - Neutral Graphene Oxide Data Set
C         28.33187        27.20733        -2.72333
C         28.27134        28.61377        -2.89627
C         27.13431        29.23692        -3.39707
C         27.90243        31.37294        -2.49128
C         26.98159        30.62387        -3.24319
C         27.81812        33.34918        -1.03814
C         26.77428        33.85764        -0.22522
C         28.20879        35.67561         0.45327
C         26.98900        34.96802         0.56184
C         28.29881        37.03477         0.94853
C         27.26464        37.62521         1.72784
C         28.34933        39.81252         1.69268
C         27.28564        38.97160         2.06900
C         28.32921        41.25445         1.90245
C         27.13196        41.94077         2.40517
C         28.13984        44.13211         1.83085
C         27.03936        43.28516         2.42565
C         28.21390        45.55161         2.34071
C         30.49662        27.37179        -1.59284
C         29.39430        26.60242        -2.08649
C         30.51554        28.77112        -1.78057
C         29.49155        29.45935        -2.63624
C         30.31493        31.66068        -1.76845
C         29.23010        30.89509        -2.17570
C         30.25974        33.19516        -1.79728
C         29.12896        33.82429        -0.95865
C         30.45040        35.88200        -0.52888
C         29.28875        35.09417        -0.29573
C         30.50126        37.23709        -0.12884
C         29.40780        37.83289         0.58796
C         30.57563        40.00540         0.66890
C         29.46493        39.22538         0.98726
C         30.75826        41.34392         1.31944
C         29.44754        42.00857         1.62020
C         30.60950        44.28056         1.43233
C         29.49152        43.45532         2.04020
C         30.56048        45.66540         1.60575
C         29.35719        46.25476         2.19186
C         32.75488        24.73425        -0.09430
C         31.61442        25.35852        -0.58744
C         32.82214        27.47034        -0.80175
C         31.62823        26.72795        -0.96245
C         32.84309        28.88095        -1.06324
C         31.63449        29.55428        -1.42079
C         32.80746        31.70835        -1.42115
C         31.60594        30.99598        -1.54460
C         32.80122        33.17025        -1.43777
C         31.58938        33.85398        -1.46817
C         32.86538        36.00091        -1.08458
C         31.55141        35.35825        -1.41715
C         32.85875        37.39383        -0.80305
C         31.65598        38.02683        -0.42451
C         32.89286        40.23349        -0.25993
C         31.56650        39.52312        -0.34832
C         32.87816        41.60809         0.02149
C         31.77318        42.23625         0.64370
C         32.90364        44.44620         0.52916
C         31.73901        43.63696         0.84003
C         32.89794        45.85602         0.80405
C         31.70643        46.48716         1.26331
C         32.85943        48.64651         1.15855
C         31.71719        47.89491         1.40659
C         35.17639        23.42144         1.01380
C         35.20010        24.77816         0.49249
C         33.98429        25.41180        -0.00378
C         35.25475        27.46925        -0.48091
C         34.03561        26.79671        -0.40433
C         35.33393        28.81422        -1.14552
C         34.05614        29.59884        -1.06291
C         35.31694        31.68908        -1.24118
C         34.07017        31.00638        -1.24371
C         35.35310        33.13741        -1.66879
C         34.05978        33.87220        -1.37297
C         35.32519        36.00962        -1.13553
C         34.07540        35.27897        -1.21633
C         35.30359        37.41552        -1.01798
C         34.09611        38.13904        -0.83037
C         35.33869        40.28831        -0.58147
C         34.09915        39.55431        -0.61727
C         35.34565        41.69947        -0.35358
C         34.03741        42.43677        -0.46751
C         35.30634        44.55111         0.06370
C         34.07978        43.83062         0.08652
C         35.31133        45.95453         0.29457
C         34.08661        46.62409         0.60465
C         35.31261        48.79339         0.60670
C         34.07963        48.03976         0.78379
C         35.35112        50.20815         0.69057
C         37.62300        23.36076         1.18042
C         36.32756        22.72958         1.24515
C         37.63529        24.87532         1.09757
C         36.41025        25.43831         0.41628
C         37.75388        27.49327        -0.19305
C         36.52160        26.67026        -0.43383
C         37.75814        28.88917        -0.44900
C         36.55613        29.60249        -0.76289
C         37.79121        31.73064        -0.81973
C         36.54161        31.00166        -0.93752
C         37.81927        33.14410        -0.96225
C         36.58417        33.88123        -1.19405
C         37.82485        35.97259        -0.67445
C         36.56030        35.26093        -1.09607
C         37.86147        37.43973        -1.04458
C         36.56016        38.18587        -1.11493
C         37.79503        40.27602        -0.55856
C         36.57242        39.61225        -0.76012
C         37.80277        41.70193        -0.29366
C         36.54088        42.40217        -0.21507
C         37.75144        44.55600         0.02943
C         36.54671        43.84805        -0.06295
C         37.75841        45.97273         0.07943
C         36.53890        46.68027         0.23046
C         37.77218        48.83272         0.27664
C         36.53719        48.11035         0.36927
C         37.77579        50.25663         0.34868
C         36.53439        50.91239         0.54870
C         40.03865        20.61676         1.89741
C         38.86180        21.26484         1.66069
C         40.08391        23.47851         1.60123
C         38.80861        22.68166         1.39946
C         40.13006        24.77059         0.82320
C         38.93481        25.44246         0.56836
C         40.20144        27.48251         0.02796
C         38.95148        26.80264         0.11306
C         40.22080        28.89094        -0.18631
C         38.99664        29.60300        -0.38111
C         40.24940        31.71559        -0.49762
C         39.00619        31.01878        -0.57009
C         40.25644        33.12189        -0.65692
C         39.06386        33.82524        -0.86659
C         40.30599        36.05606        -0.64984
C         39.09822        35.30604        -1.18388
C         40.28776        37.41386        -0.42143
C         39.06311        38.17198        -0.60837
C         40.22262        40.27504         0.10798
C         39.02458        39.53847        -0.44509
C         40.28810        41.67322        -0.50136
C         38.99932        42.38723        -0.17195
C         40.23097        44.52667        -0.44660
C         39.05415        43.82669         0.24429
C         40.23203        46.00278        -0.10647
C         39.01602        46.69302         0.03231
C         40.23400        48.84027         0.02079
C         39.00882        48.12285         0.11910
C         40.24249        50.27293         0.05758
C         39.02377        50.98716         0.21865
C         40.27117        53.08858         0.11808
C         39.07555        52.40859         0.24704
C         42.52684        20.56618         1.90022
C         41.31199        21.29400         1.78784
C         42.59411        23.30771         1.24824
C         41.35173        22.66710         1.49740
C         42.62938        24.67232         0.79020
C         41.38832        25.37142         0.54335
C         42.66033        27.41823         0.01434
C         41.42343        26.74841         0.15465
C         42.69286        28.83311        -0.00350
C         41.46303        29.58076        -0.13573
C         42.70789        31.69350        -0.10779
C         41.48555        31.00245        -0.26134
C         42.76310        33.11365        -0.18297
C         41.55407        33.83624        -0.64263
C         42.76096        36.03735        -0.07054
C         41.58189        35.33488        -0.61161
C         42.74334        37.39213         0.08048
C         41.52009        38.14235        -0.12476
C         42.73239        40.26689         0.23098
C         41.51498        39.51780         0.00807
C         42.70171        41.66539         0.28835
C         41.51947        42.42717        -0.04675
C         42.62167        44.60433         0.55019
C         41.51388        43.79732        -0.08955
C         42.69411        46.00913         0.02120
C         41.46175        46.71234        -0.07352
C         42.71495        48.82787        -0.18087
C         41.46729        48.13702        -0.08433
C         42.72389        50.25931        -0.19352
C         41.48982        50.96892        -0.05869
C         42.74216        53.08108        -0.16584
C         41.49796        52.39249        -0.03550
C         43.74106        21.19854         1.74516
C         45.07065        23.24114         1.18678
C         43.81271        22.57843         1.40428
C         45.08048        24.56855         0.69929
C         43.87038        25.27546         0.50624
C         45.17597        27.41051         0.23907
C         43.93875        26.64146        -0.14986
C         45.15770        28.78988         0.38517
C         43.92166        29.50075         0.20301
C         45.21474        31.61977         0.13543
C         43.89583        30.96955         0.46734
C         45.21369        33.10716         0.12136
C         43.92425        33.81164         0.12542
C         45.25298        35.96389         0.20608
C         43.93463        35.27124         0.47992
C         45.25156        37.37750         0.22427
C         43.97218        38.08104         0.63010
C         45.19550        40.24748         0.39064
C         43.98335        39.56287         0.36985
C         45.23259        41.66637         0.33220
C         43.96369        42.38397         0.53936
C         45.20144        44.56399         0.10478
C         43.97079        43.88441         0.58004
C         45.14689        45.91424        -0.21666
C         43.91414        46.67599        -0.13371
C         45.17408        48.79911        -0.49707
C         43.92825        48.09838        -0.28497
C         45.17859        50.23624        -0.50280
C         43.96230        50.96371        -0.32939
C         43.92317        52.39645        -0.31345
C         47.52438        23.18340         1.36182
C         46.31467        22.59878         1.55156
C         47.63865        24.44932         0.62893
C         46.36995        25.18811         0.30170
C         47.58022        27.25895         1.06426
C         46.49875        26.70665         0.07517
C         47.64114        28.81448         1.16849
C         46.40130        29.52267         0.64899
C         47.68686        31.64919         0.59566
C         46.44688        30.89554         0.53237
C         47.69357        33.05281         0.52429
C         46.40819        33.81549         0.70990
C         47.69511        35.94540         0.24268
C         46.45886        35.25995         0.28726
C         47.69537        37.36579         0.20409
C         46.46553        38.06824         0.25765
C         47.71533        40.24935         0.34995
C         46.46218        39.50205         0.72301
C         47.69282        41.64910         0.22074
C         46.44232        42.38030         0.25879
C         47.65861        44.47259        -0.18463
C         46.43736        43.80832         0.05132
C         47.66969        45.85719        -0.66771
C         46.33197        46.61326        -0.72999
C         47.59916        48.73582        -1.28553
C         46.35057        48.07545        -0.74993
C         47.58034        50.21719        -1.02479
C         46.45235        50.89029        -0.69316
C         50.12950        24.50771         0.44831
C         48.92328        25.20653         0.63655
C         50.13594        27.32112         0.58472
C         48.92064        26.60599         0.73284
C         50.13588        28.77328         0.55757
C         48.91775        29.47956         0.65879
C         50.16089        31.59407         0.49905
C         48.92867        30.89511         0.57266
C         50.15691        33.05625         0.66438
C         48.90361        33.80052         0.48880
C         50.17361        35.93499         0.22505
C         48.93497        35.21069         0.35382
C         50.16373        37.37303         0.08504
C         48.93892        38.09135         0.18458
C         50.15925        40.22839         0.01676
C         48.92891        39.52065         0.19068
C         50.15344        41.65468        -0.01067
C         48.92240        42.36999         0.05759
C         50.14437        44.51169        -0.14248
C         48.91099        43.78721        -0.07787
C         50.13763        45.96477        -0.30429
C         48.91941        46.64261        -0.59162
C         50.10271        48.73693        -0.81268
C         48.88937        48.03435        -0.83692
C         51.32603        25.19680         0.35196
C         52.60379        27.33333         0.22566
C         51.35546        26.60909         0.39605
C         52.59742        28.75175         0.20413
C         51.36589        29.47621         0.36558
C         52.63014        31.63056         0.18445
C         51.38552        30.90325         0.37811
C         52.66499        33.03808         0.14850
C         51.46749        33.81503         0.49929
C         52.62365        35.92885        -0.10361
C         51.41101        35.25053         0.18313
C         52.61956        37.35277        -0.25497
C         51.38257        38.08008        -0.12272
C         52.58921        40.24583        -0.36160
C         51.37883        39.51452        -0.16637
C         52.61292        41.64341        -0.26791
C         51.38155        42.37185        -0.10877
C         52.64020        44.50802         0.03585
C         51.35730        43.79348        -0.09130
C         52.64580        46.02985        -0.03683
C         51.34927        46.70697        -0.30198
C         51.30650        48.08387        -0.55691
C         55.01930        27.32941        -0.12758
C         53.83731        26.64680         0.06625
C         55.03542        28.74641        -0.17470
C         53.82156        29.46685         0.00029
C         55.06244        31.58895        -0.28129
C         53.84180        30.89792        -0.03869
C         55.07125        33.02712        -0.35482
C         53.86065        33.75107        -0.15924
C         55.06413        35.88848        -0.46944
C         53.85258        35.19002        -0.23441
C         55.06072        37.33419        -0.55521
C         53.83361        38.04058        -0.48609
C         55.10904        40.22776        -0.59955
C         53.80826        39.50729        -0.84761
C         55.10704        41.66449        -0.52671
C         53.87250        42.36947        -0.37706
C         55.09573        44.50307        -0.37763
C         53.88711        43.77621        -0.25217
C         55.07372        45.94599        -0.47018
C         53.92493        46.66524        -0.40528
C         56.25043        29.45869        -0.39507
C         56.26031        30.82966        -0.45285
C         56.26355        33.76335        -0.60377
C         56.26079        35.13856        -0.64760
C         56.27023        38.07537        -0.65739
C         56.28553        39.47143        -0.61834
C         56.31525        42.41156        -0.57963
C         56.30921        43.79261        -0.53643
O         41.82138        34.59100        -1.89490
O         27.33139        32.49144        -2.00175
O         43.98417        37.99447         2.07463
O         45.37248        32.32529        -1.12798
O         37.33130        37.83289        -2.33408
O         46.93500        46.00591        -1.94711
O         47.05429        24.41161        -0.74202
O         52.70134        45.33724         1.25565
O         44.09077        43.14430         1.83849
O         50.93834        33.49622         1.83558
O         46.42432        39.38391         2.18754
H         45.57376        38.88923         2.38887
O         47.56446        48.56465        -2.74610
H         47.40813        47.59963        -2.89898
O         29.76079        43.42499         3.47442
H         30.55180        42.85095         3.59769
O         30.13115        29.62807        -3.95818
H         30.35951        28.73311        -4.28776
O         36.71624        26.15167        -1.84146
H         35.95616        25.55716        -2.02754
O         35.47119        33.09631        -3.14418
H         35.79351        33.97459        -3.44023
O         37.58178        25.33731         2.49533
H         38.39066        24.97267         2.93657
O         47.16374        26.71659         2.33713
H         47.39156        27.38606         3.02501
O         39.98281        40.47963         1.53223
H         40.20641        39.65083         2.00560
O         44.07906        26.39394        -1.60327
H         45.02335        26.55747        -1.84230
O         31.35341        41.08145         2.67451
H         30.78909        40.40152         3.10393
O         31.00776        39.94564        -1.66032
H         31.67210        39.71715        -2.34536
O         43.79173        31.11991         1.93550
H         42.96415        30.67877         2.22264
O         39.14757        35.41934        -2.62576
H         40.04359        35.11327        -2.90065
O         47.68424        29.11249         2.60802
H         47.61850        30.08619         2.71540
O         39.31381        43.87616         1.67880
H         40.26646        44.10130         1.83092
O         29.95494        33.50736        -3.18659
H         30.19821        34.46186        -3.31888
O         33.80059        42.59696        -1.92005
H         34.52055        43.16287        -2.27193
O         43.81012        35.32157         1.95163
H         43.86304        36.30914         2.20000
O         40.34271        41.55073        -1.94441
H         40.23226        42.46238        -2.30776
O         35.52137        28.53665        -2.59634
H         36.17500        27.79414        -2.65136
O         40.01309        23.91924         3.02273
H         40.04501        23.10830         3.57525
O         27.91506        44.19173         0.39346
H         27.04116        44.60593         0.23925
O         40.01041        44.40436        -1.88818
H         40.64389        44.99924        -2.34250
O         37.89264        35.90539         0.77930
H         37.01205        36.13519         1.14259
O         42.15214        44.75467         1.93626
H         42.66309        44.08423         2.45929
O         53.66626        39.51529        -2.33447
H         54.44559        39.03911        -2.69438
O         46.92426        26.91946        -1.29208
H         47.31528        26.05976        -1.59169
O         46.17235        33.82986         2.15388
H         45.35225        34.37089         2.31573
O         31.22050        35.83871        -2.80929
H         32.03892        35.73665        -3.34247
H         27.47672        26.60044        -3.05769
H         26.29402        28.63803        -3.77842
H         26.02249        31.09577        -3.49369
H         25.78879        33.37625        -0.26791
H         26.16373        35.35719         1.17104
H         26.41098        37.02082         2.06171
H         26.43838        39.37866         2.63785
H         26.29339        41.33435         2.77715
H         26.12178        43.77467         2.78888
H         27.31509        46.02672         2.76421
H         29.39128        25.51256        -1.95844
H         29.38823        47.30581         2.51399
H         32.68604        23.67671         0.19493
H         30.68678        24.77619        -0.66574
H         32.80648        49.73549         1.29498
H         30.80697        48.42079         1.72554
H         34.21357        22.90571         1.12947
H         34.42356        50.77185         0.86032
H         36.25991        21.66709         1.51885
H         36.49782        52.00851         0.60965
H         40.04050        19.53625         2.10144
H         37.92778        20.68592         1.66216
H         40.28051        54.18812         0.13737
H         38.15055        52.98845         0.36758
H         42.48723        19.49018         2.12254
H         42.74281        54.18081        -0.15030
H         44.66145        20.60887         1.84823
H         44.85569        52.96731        -0.41684
H         48.43458        22.72357         1.77330
H         46.27451        21.63968         2.08602
H         48.49719        50.79507        -1.20690
H         46.51031        51.98244        -0.58109
H         50.11805        23.41168         0.37009
H         50.12846        49.81637        -1.00832
H         52.25033        24.62324         0.20885
H         52.23190        48.67504        -0.54973
H         55.96218        26.77767        -0.25171
H         53.86692        25.55002         0.09561
H         56.02296        46.45523        -0.69491
H         53.95327        47.74475        -0.60993
H         57.18333        28.89162        -0.52629
H         57.21364        31.34379        -0.63208
H         57.21403        33.23727        -0.76179
H         57.20873        35.65643        -0.84418
H         57.23467        37.55194        -0.67520
H         57.26336        39.97044        -0.56775
H         57.27552        41.89157        -0.69511
H         57.25215        44.35100        -0.62519
