         324
 CSIRO Nanostructure Databank - Neutral Graphene Oxide Data Set
C          1.42291         3.37766        -0.39085
C          0.17435         4.03877        -0.14401
C          1.16491         6.25832        -0.55711
C          0.05053         5.39665        -0.13963
C          1.18018         7.71597        -0.25851
C         -0.03576         8.42386        -0.09522
C          1.14299        10.56448        -0.01839
C         -0.05840         9.80086         0.00204
C          1.12578        11.99977        -0.04697
C         -0.09874        12.75021        -0.00189
C          1.08342        14.80523        -0.66040
C         -0.13486        14.08573        -0.27067
C          1.08085        16.32201        -0.87538
C         -0.12463        17.12847        -0.61395
C          1.11669        19.22805        -0.18838
C         -0.09639        18.45399        -0.30002
C          1.14503        20.56773         0.19961
C         -0.03059        21.35309         0.46239
C          1.17450        23.51670         0.44398
C         -0.01609        22.72386         0.56955
C          1.19658        24.91138         0.43767
C         -0.01614        25.71461         0.54304
C          1.34046        27.70785         1.12923
C          0.02626        27.03789         0.81306
C          1.34391        29.20508         0.95100
C          3.87928         3.43696        -0.68468
C          2.58441         4.08764        -0.59312
C          3.73631         6.33698        -0.57337
C          2.50828         5.55033        -0.77426
C          3.65959         7.69233        -0.34988
C          2.40011         8.42341        -0.21513
C          3.59989        10.62294         0.03121
C          2.38912         9.85689        -0.06154
C          3.60347        12.01755        -0.06727
C          2.35235        12.73473        -0.19283
C          3.65143        14.80994        -0.81953
C          2.35905        14.11694        -0.43531
C          3.65301        16.31827        -0.64017
C          2.39389        17.05745        -0.85785
C          3.67480        19.20069        -0.30411
C          2.38019        18.54693        -0.57152
C          3.69351        20.58703        -0.05138
C          2.44442        21.26801         0.34515
C          3.69229        23.49858         0.04504
C          2.46068        22.78528         0.43720
C          3.67756        24.91338        -0.07415
C          2.44653        25.63866         0.23941
C          3.58556        27.81056        -0.10134
C          2.46071        27.01549         0.39104
C          3.69232        29.24572         0.22938
C          2.45422        29.90094         0.62658
C          6.33040         3.40394        -1.08800
C          5.06037         4.11290        -0.75922
C          6.23003         6.34109        -0.18592
C          5.06305         5.63801        -0.84537
C          6.22083         7.81389        -0.30082
C          4.89534         8.43211         0.00288
C          6.13618        10.64761         0.39138
C          4.86463         9.90041         0.25986
C          6.03255        12.09871         0.56176
C          4.82811        12.78681         0.05357
C          6.10361        14.89370        -0.14924
C          4.86272        14.14834        -0.20022
C          6.11692        16.31167        -0.41867
C          4.85252        17.01431        -0.54123
C          6.10339        19.17954        -0.51415
C          4.87193        18.46927        -0.47117
C          6.08479        20.59110        -0.43895
C          4.90079        21.31282        -0.14565
C          6.09808        23.50457        -0.30711
C          4.89404        22.77898        -0.12875
C          6.12464        24.91267        -0.39121
C          4.88794        25.60922        -0.31805
C          6.12028        27.83295        -0.45662
C          4.86554        27.07141        -0.48399
C          6.13023        29.21623        -0.23025
C          4.88733        29.90189         0.08656
C          8.91782         3.23546        -0.66800
C          7.47803         3.62271        -0.40793
C          8.65778         6.41658         0.26431
C          7.37478         5.75413         0.26540
C          8.68946         7.80381         0.29651
C          7.45476         8.57968         0.06716
C          8.57277        10.70043         0.83321
C          7.35387        10.00330         0.49131
C          8.63130        12.10948         0.74845
C          7.36206        12.86368         0.58029
C          8.57141        14.88154        -0.30869
C          7.32057        14.22843         0.06445
C          8.59837        16.34079        -0.39777
C          7.34133        17.02642        -0.44529
C          8.59068        19.13153        -0.66261
C          7.36171        18.46011        -0.58264
C          8.61657        20.58035        -0.89674
C          7.31199        21.33176        -0.75038
C          8.64454        23.50965        -0.52573
C          7.36646        22.76459        -0.35082
C          8.60774        24.98150        -0.65409
C          7.38487        25.62847        -0.59019
C          8.67482        27.87080        -0.61778
C          7.35327        27.10115        -0.74364
C          8.61689        29.29345        -0.22290
C          7.36949        29.92715        -0.13697
C         11.17993         3.54047         0.27526
C          9.97634         4.13036         0.02067
C         11.19474         6.39499         0.43983
C          9.90676         5.63078         0.09675
C         11.07262         7.78309         0.91575
C          9.86624         8.50306         0.72416
C         10.77770        10.33659         1.93611
C          9.73905         9.87258         1.12797
C         11.00946        12.51153         1.47770
C          9.84064        12.88750         0.77029
C         11.11308        14.95955         0.17535
C          9.90200        14.15167         0.04109
C         11.07909        16.32915        -0.15963
C          9.82929        17.02480        -0.38153
C         11.06181        19.18572        -0.44198
C          9.84540        18.45842        -0.50273
C         11.07780        20.63190        -0.57067
C          9.88706        21.31047        -0.77060
C         11.16633        23.53706        -0.81294
C          9.86398        22.76903        -0.96221
C         11.08339        24.96281        -0.45854
C          9.89107        25.67389        -0.55608
C         11.08117        27.80436        -0.07805
C          9.90187        27.11035        -0.35757
C         11.07935        29.25415         0.01938
C          9.84553        29.94948         0.02537
C         13.59237         3.54454         0.88609
C         12.39731         4.23900         0.67086
C         13.60134         6.31045         1.22116
C         12.42135         5.64807         0.80864
C         13.51597         7.73056         1.62823
C         12.18287         8.37627         1.55730
C         13.74495        10.87514         1.89632
C         11.94661         9.61105         2.16093
C         13.60210        12.34904         1.58321
C         12.29682        13.01713         1.20927
C         13.54360        14.99362         0.29529
C         12.33385        14.30741         0.54879
C         13.53623        16.36704        -0.05311
C         12.29896        17.06705        -0.16372
C         13.54196        19.17641        -0.25839
C         12.30843        18.48448        -0.29752
C         13.53511        20.63461         0.08294
C         12.31894        21.37250        -0.41640
C         13.59526        23.47554        -0.18470
C         12.36436        22.75113        -0.46435
C         13.58761        24.86673        -0.05710
C         12.28658        25.59679         0.19496
C         13.52407        27.78802         0.04474
C         12.33251        27.09659         0.01588
C         13.55084        29.23804         0.12807
C         12.31579        29.92611         0.15277
C         16.01373         3.48241         0.85421
C         14.81231         4.22687         1.09883
C         16.15930         6.36526         1.43435
C         14.84841         5.63921         1.28493
C         16.11629         7.89322         1.37104
C         14.78406         8.56929         1.59835
C         15.86754        10.69985         0.79218
C         14.69448        10.04376         1.33969
C         15.98975        12.05115         0.75389
C         14.85318        12.96806         1.02491
C         16.08838        15.00148         0.13943
C         14.80505        14.19579         0.15266
C         15.98594        16.31045        -0.56496
C         14.75246        17.07383        -0.29391
C         16.04330        19.20129        -0.43139
C         14.77085        18.47942        -0.35951
C         16.05226        20.62863        -0.25699
C         14.83625        21.34208        -0.18985
C         16.07747        23.44954         0.01797
C         14.83795        22.74948        -0.14425
C         16.03403        24.87798         0.12140
C         14.81957        25.56741         0.06377
C         16.06733        27.82593         0.04208
C         14.80003        27.05006        -0.06661
C         16.03963        29.29550         0.24797
C         14.78005        29.94011         0.24015
C         18.15999         3.36939        -0.21062
C         17.21245         4.10291         0.61570
C         18.76088         6.08429         0.52721
C         17.43947         5.51251         1.03003
C         18.96641         7.54333         0.53310
C         17.21426         8.70922         1.45871
C         18.30462        10.52312        -0.04785
C         17.25227        10.15114         1.05950
C         18.47681        11.98933         0.09325
C         17.43575        12.35267         1.10856
C         18.52796        14.93420        -0.21337
C         17.31526        14.53888         0.52411
C         18.51800        16.28228        -0.88306
C         17.23846        17.07725        -0.90067
C         18.50869        19.23013        -0.58303
C         17.25304        18.53849        -0.67287
C         18.53683        20.57131        -0.19257
C         17.30611        21.32021        -0.11298
C         18.56858        23.41867         0.53056
C         17.29382        22.72484         0.09325
C         18.58313        24.91919         0.30996
C         17.28741        25.60658         0.42988
C         18.57399        27.81722         0.33129
C         17.29695        27.09929         0.46772
C         18.52990        29.23865         0.28108
C         17.27093        29.94532         0.33935
C         19.18965         3.95817        -0.85167
C         20.29303         6.14559        -1.52189
C         19.57135         5.34435        -0.51296
C         20.26611         7.50114        -1.51136
C         19.60863         8.24231        -0.44847
C         20.67665        10.52850        -0.90407
C         19.47903         9.72954        -0.58861
C         20.73890        11.87851        -0.76650
C         19.64378        12.68679        -0.24404
C         20.97599        14.84670        -0.45051
C         19.78174        14.13231        -0.14432
C         21.02084        16.17741        -0.82601
C         19.81857        16.99719        -1.06437
C         21.03959        19.28543        -0.77616
C         19.78177        18.52532        -0.94809
C         21.05820        20.54976        -0.33859
C         19.84448        21.22791         0.24614
C         21.04820        23.51569         0.34062
C         19.81426        22.74355        -0.07474
C         21.01309        24.85809         0.45867
C         19.76626        25.62197         0.34283
C         20.98738        27.83363         0.20083
C         19.78749        27.09504         0.30175
C         20.96034        29.23006         0.15916
C         19.75758        29.93407         0.20675
O         17.53695        13.66576         1.61873
O          8.07585        27.58739        -1.92541
O          8.23249        23.02655         0.81828
O          0.98164        15.43360        -2.03844
O         14.51946        13.16100         2.42467
O         14.23249         8.07460         2.85764
O          2.61257        21.94747         1.64280
O         18.25838        10.02852        -1.40217
O         16.37315        16.54709        -1.96858
O         17.15741        26.35302         1.72972
O         15.57556        27.44190        -1.28489
O         18.49125         8.18974         1.67322
O          1.67915         5.97119        -1.90910
O         10.56227        23.25384        -2.13335
O         10.78483        11.60410         2.52576
O          2.40048        18.03158        -1.96106
O         17.07226         5.79395         2.40827
O         20.00832         5.40165         0.90163
O          7.37774         4.43642         0.73830
O          4.78492         8.91568         1.38849
O         19.78221        17.85025        -2.25340
O          6.99539         8.44042        -1.35981
O          9.34473        14.14409        -1.31276
O         17.69977        11.20786         2.05673
O          6.53530        12.67683         1.80063
O          7.83958        21.03989        -2.07969
O         12.91742        10.32706         2.88052
O         10.76587         6.21734        -0.95189
O          3.91522        27.52676        -1.50736
O         18.31677        15.08970        -1.68634
O         14.75526        13.65155        -1.21058
H         14.93477        14.38164        -1.84328
O         19.96042        21.01740         1.67390
H         19.38448        21.67545         2.13291
O          5.29578         5.89369        -2.27744
H          4.46692         5.67841        -2.75700
O         13.41441        20.65218         1.56194
H         13.39961        21.59280         1.84274
O          1.57992        27.49143         2.56677
H          1.52054        26.52581         2.73022
O          9.18103         3.25349        -2.07586
H          9.23151         4.18583        -2.37364
O         18.62255        23.28028         1.98954
H         17.99212        23.92657         2.37614
O         12.05823        25.39279         1.64722
H         11.23839        25.87614         1.88699
O         19.71229        22.82777        -1.51509
H         19.77234        23.77107        -1.77416
O          3.75762        14.60670        -2.27380
H          2.92310        14.96273        -2.66389
H          1.46462         2.28246        -0.30225
H         -0.68879         3.41866         0.13776
H         -0.88672         5.85705         0.20410
H         -0.98790         7.87574        -0.10984
H         -1.03103        10.30672         0.06192
H         -1.04116        12.23615         0.23168
H         -1.09675        14.61590        -0.28196
H         -1.09925        16.63193        -0.72158
H         -1.05539        18.96159        -0.12362
H         -1.00290        20.84354         0.51838
H         -0.97674        23.23760         0.71612
H         -0.98845        25.22169         0.39857
H         -0.90395        27.61780         0.90790
H          0.42402        29.74289         1.22651
H          3.88295         2.33580        -0.70220
H          2.43344        31.00172         0.62195
H          6.32472         2.71620        -1.94817
H          4.93905        30.98006         0.30215
H          9.09120         2.18080        -0.32240
H          7.33596        30.99945         0.10808
H         11.27055         2.45010         0.14349
H          9.84470        31.03378         0.21338
H         13.61347         2.45078         0.77034
H         12.31824        31.02268         0.24446
H         15.90239         2.42330         0.57454
H         14.74682        31.03641         0.33323
H         17.91240         2.31798        -0.42092
H         17.29790        31.04268         0.41831
H         19.80918         3.39761        -1.56621
H         20.76080         5.61007        -2.36078
H         20.75725         8.06897        -2.31386
H         21.58259         9.98167        -1.20687
H         21.68168        12.38515        -1.01731
H         21.93492        14.30907        -0.40119
H         21.99843        16.62426        -1.05559
H         21.95979        18.81683        -1.15516
H         22.01690        21.08724        -0.29232
H         22.00518        22.98592         0.45510
H         21.93786        25.40141         0.69963
H         21.95648        27.31906         0.15538
H         21.90783        29.78270         0.09002
H         19.75977        31.03300         0.18208
