         210
 CSIRO Nanostructure Databank - Neutral Graphene Oxide Data Set
C         30.46122        31.74004         0.75163
C         30.56981        32.80666         1.35833
C         30.61978        36.00501         2.09026
C         30.66189        37.18275         1.69325
C         30.89342        40.55608         1.82496
C         30.90405        41.80236         1.62353
C         32.72824        29.27941        -0.73506
C         31.62052        29.71047        -0.38231
C         32.84243        31.80572         0.18480
C         31.43069        31.20719        -0.26047
C         32.91776        33.02092         0.86138
C         31.74528        33.64000         1.60439
C         32.96802        35.87829         1.40474
C         31.76553        35.08736         1.97493
C         32.97831        37.42225         1.62046
C         31.76531        38.10214         1.53852
C         32.91279        40.08877         0.51223
C         31.59025        39.49372         0.96741
C         32.90540        41.31946        -0.13950
C         31.01213        43.16966         1.48126
C         32.84792        44.36181         0.02669
C         31.85898        43.69529         0.62381
C         35.39829        27.78597        -1.48529
C         35.24853        29.12486        -1.00640
C         34.06703        29.77854        -0.66911
C         35.34143        31.75354         0.02566
C         34.07003        31.13284        -0.17756
C         35.39325        33.06506         0.59287
C         34.17764        33.70391         0.98043
C         35.48863        35.53857         1.80873
C         34.22758        35.01972         1.52925
C         35.47876        37.68093         1.70237
C         34.20705        38.17929         1.39251
C         35.40046        40.11638         0.49997
C         34.16919        39.48814         0.83195
C         35.39185        41.56150         0.26206
C         34.04924        42.23163         0.01143
C         35.23459        44.24748        -0.76726
C         33.99705        43.65618        -0.42205
C         35.44313        45.56530        -1.23470
C         37.78209        27.73457        -1.73914
C         36.45560        27.20145        -1.77371
C         37.76449        29.11855        -1.26250
C         36.53595        29.77465        -0.88298
C         37.82422        31.75804        -0.16245
C         36.56333        31.09380        -0.34623
C         37.86319        33.09348         0.33838
C         36.64872        33.74571         0.71035
C         37.89407        35.88462         1.13610
C         36.69960        35.06165         1.25043
C         37.89179        37.32944         1.07553
C         36.68581        38.12962         1.12209
C         37.86378        40.13677         0.26026
C         36.64434        39.44962         0.58110
C         37.83951        41.51381        -0.14283
C         36.61233        42.23482        -0.20021
C         37.78004        44.23577        -1.00124
C         36.53877        43.56617        -0.67377
C         37.80213        45.59280        -1.46463
C         36.49880        46.15161        -1.56174
C         40.19720        24.95505        -2.14764
C         39.15460        25.64459        -2.13760
C         40.28622        27.71698        -2.01864
C         38.95507        27.03536        -1.98204
C         40.25634        29.17669        -1.52056
C         38.99475        29.78725        -1.07392
C         40.29884        31.74863        -0.26894
C         39.04060        31.09057        -0.49907
C         40.30280        33.05938         0.26780
C         39.10508        33.76837         0.54438
C         40.33906        35.91212         0.90036
C         39.11791        35.18512         0.88534
C         40.34601        37.33371         0.79306
C         39.09741        38.03046         0.74197
C         40.31914        40.13075         0.14418
C         39.09188        39.43247         0.39608
C         40.30636        41.50808        -0.23372
C         39.06820        42.19746        -0.41322
C         40.27807        44.28128        -0.97721
C         39.03705        43.56726        -0.82129
C         40.28339        45.65623        -1.43976
C         39.02329        46.25918        -1.73197
C         40.22599        48.20955        -2.52225
C         39.18613        47.56356        -2.26287
C         42.76899        24.86670        -1.87743
C         41.51213        25.49795        -1.99758
C         42.79095        27.65663        -1.71099
C         41.56169        26.94054        -1.92116
C         42.73650        29.09712        -1.44965
C         41.53173        29.76917        -1.09553
C         42.80969        31.75027        -0.32409
C         41.54661        31.06862        -0.54089
C         42.82839        33.05627         0.15419
C         41.58840        33.67970         0.62245
C         42.89890        35.88446         1.00289
C         41.59463        35.15204         1.00213
C         42.86142        37.43056         0.92079
C         41.56853        38.08241         0.67606
C         42.81534        40.16242         0.11235
C         41.56742        39.44451         0.31783
C         42.78170        41.53999        -0.20536
C         41.54288        42.23419        -0.37582
C         42.72002        44.48236        -0.45247
C         41.49599        43.62698        -0.68189
C         42.75242        45.78255        -1.23809
C         41.52516        46.38040        -1.65094
C         42.81873        48.26835        -2.37996
C         41.52892        47.71782        -2.24095
C         43.80009        25.54639        -1.63020
C         45.28160        27.46496        -1.02118
C         44.03620        26.92117        -1.51217
C         45.65724        28.81257        -1.24921
C         43.90688        29.91083        -1.45855
C         45.35385        31.69602        -0.44057
C         44.05077        31.11750        -0.74910
C         45.31114        33.02517         0.31943
C         44.08636        33.86007        -0.06968
C         45.31985        35.94163         0.55772
C         44.11716        35.22544         0.57152
C         45.32351        37.36947         0.57488
C         44.10205        38.10684         0.52437
C         45.36532        40.11661        -0.26414
C         44.06381        39.46669         0.17863
C         45.35951        41.61801        -0.12889
C         44.05599        42.25370        -0.46510
C         45.25474        44.51425        -0.43653
C         44.01301        43.72573        -0.64698
C         45.22671        45.83317        -0.83566
C         44.00955        46.42708        -1.36234
C         43.86075        47.68416        -1.97931
C         47.17295        27.50043         0.43374
C         46.23447        26.88596        -0.14415
C         47.50431        28.87097         0.37893
C         46.62579        29.54582        -0.52548
C         47.92726        31.65987        -0.29075
C         46.56136        30.99651        -0.43942
C         47.79701        33.15265        -0.01377
C         46.58637        33.82327         0.21405
C         47.80463        35.94825         0.52872
C         46.58330        35.22832         0.39548
C         47.82236        37.37484         0.71342
C         46.57281        38.09612         0.58292
C         47.72934        40.26569         0.73417
C         46.55701        39.47293         0.39535
C         47.77728        41.70256         0.40624
C         46.49493        42.34696         0.11916
C         47.78092        44.52930         0.01798
C         46.41646        43.85552         0.28975
C         47.53494        45.87597        -0.34067
C         46.50848        46.50658        -0.67112
C         49.33667        29.11924         2.14052
C         48.51853        29.60467         1.09364
C         50.02014        31.56740         1.34259
C         48.85738        30.93992         0.74838
C         50.54318        32.81619         0.85912
C         48.96183        33.92438        -0.02622
C         50.30415        35.88733         0.76559
C         49.04239        35.25224         0.43446
C         50.30155        37.32693         0.80817
C         49.05346        38.04647         0.77529
C         50.30861        40.27677         0.81668
C         49.05752        39.50879         0.96643
C         50.27661        41.69659         0.65675
C         48.99102        42.39037         0.45773
C         50.28031        44.37568         0.17885
C         48.95683        43.84768         0.20100
C         50.25707        29.67408         2.79347
C         51.68724        31.85094         3.03107
C         50.71343        30.97855         2.48802
C         51.95727        33.01797         2.64680
C         51.40657        33.70345         1.52670
C         52.54967        35.97955         1.40111
C         51.46450        35.11500         1.16681
C         52.59412        37.23196         1.26979
C         51.50573        38.08630         1.01782
C         52.63679        40.36977         0.90949
C         51.51727        39.51959         0.92467
C         52.67260        41.62119         0.75638
C         51.53535        42.43048         0.60835
C         51.38361        43.83189         0.36656
O         44.97360        29.48822        -2.27031
O         48.23890        39.96680         2.08322
O         44.06131        42.87961        -1.83163
O         35.55403        36.65232         2.64250
O         41.59900        34.12245         2.04098
O         50.14591        33.26897        -0.41511
O         40.29549        28.82563        -2.95582
O         32.04619        34.08951         2.95620
O         34.64818        42.21319         1.35527
O         43.00592        36.72308         2.19074
O         31.86950        41.69418        -0.89921
H         31.17872        40.98183        -0.86368
O         31.14818        31.74528        -1.52272
H         30.28260        31.40999        -1.83329
O         30.73564        39.33924        -0.19776
H         29.89186        38.93573         0.10357
O         45.48287        39.84665        -1.70562
H         45.42558        38.87601        -1.83391
O         46.16850        44.06189         1.71041
H         46.04361        45.02296         1.86294
O         42.69460        44.85203         0.96180
H         41.86138        45.33840         1.13693
O         45.12851        32.67975         1.71626
H         45.93049        32.21790         2.03692
O         44.15096        34.12025        -1.50700
H         44.25879        33.25844        -1.96612
O         48.53861        31.48043        -1.58889
H         49.39520        31.96839        -1.58203
O         32.70605        35.81673        -0.04186
H         33.33052        36.41634        -0.50218
