         621
 CSIRO Nanostructure Databank - Neutral Graphene Oxide Data Set
C          5.96814        31.73833        -0.59964
C          5.97485        33.09971        -0.54650
C          8.50825        27.36051        -0.40509
C          8.39842        28.79741        -0.12644
C          7.17196        29.58918        -0.41389
C          8.47518        31.72400        -0.59325
C          7.18222        30.95013        -0.47605
C          8.40513        33.15482        -0.11531
C          7.18001        33.86825        -0.27796
C          8.31898        36.02733         0.12197
C          7.15879        35.27039        -0.21467
C          8.34397        37.41373         0.14418
C         10.91128        22.98492        -0.30566
C         10.63256        24.35045        -0.63237
C          9.61422        25.19978        -0.27039
C         10.97858        27.38561        -0.18129
C          9.70223        26.65942        -0.34794
C         10.96034        28.77962        -0.01455
C          9.69416        29.54026         0.05903
C         10.86362        31.73188         0.06374
C          9.69873        31.01144        -0.09661
C         10.83805        33.16774         0.18200
C          9.59281        33.82857         0.23176
C         10.75507        36.01955         0.97121
C          9.50951        35.27023         0.59116
C         10.79105        37.49121         0.71504
C          9.51958        38.19315         0.47157
C         10.63602        40.41007         0.84950
C          9.50733        39.56359         0.32081
C         10.76867        41.81872         0.31987
C         13.26806        18.78131        -0.14728
C         13.39466        20.28526        -0.00310
C         12.25290        21.00758        -0.19831
C         13.46666        23.15732         0.00800
C         12.20273        22.44709        -0.21858
C         13.53779        24.59778         0.04776
C         12.50148        25.41340        -0.45646
C         13.39359        27.41924         0.52193
C         12.26868        26.74069        -0.05409
C         13.33177        28.84367         0.61504
C         12.16211        29.50500         0.25036
C         13.42306        31.73706         0.13230
C         12.14419        30.98325         0.06240
C         13.41401        33.23156         0.31329
C         12.09238        33.95649         0.31373
C         13.19210        35.79061         1.57273
C         12.03799        35.25869         1.01785
C         13.27931        37.63735         0.12623
C         11.97128        38.19401         0.62004
C         13.26078        40.40756         0.63889
C         11.97265        39.66586         0.84131
C         13.24718        41.82851         0.20919
C         11.94782        42.52700         0.15707
C         12.71938        44.85575        -0.45278
C         11.81200        43.99445         0.13560
C         12.97386        46.25546        -0.35722
C         16.01628        14.73368        -1.20330
C         15.91742        16.07796        -0.75686
C         14.70084        16.71385        -0.62018
C         15.78358        18.74727         0.51400
C         14.56132        18.01600         0.05901
C         15.75875        20.22285         0.67968
C         14.62320        20.96249         0.37444
C         15.78283        23.12296         0.88927
C         14.61371        22.42419         0.42038
C         15.77987        24.50872         1.06627
C         14.63415        25.27973         0.67827
C         15.70418        27.40755         1.47633
C         14.56642        26.68713         0.84999
C         15.78797        28.87679         1.30616
C         14.47646        29.63066         1.21221
C         15.84462        31.75826         0.93602
C         14.64742        30.98303         0.54216
C         15.81168        33.22886         1.03194
C         14.59868        33.90263         0.90241
C         15.72232        36.06289         1.31238
C         14.51516        35.27854         1.25121
C         15.71711        37.52303         1.09565
C         14.54299        38.23690         0.69485
C         15.75232        40.35696         0.72633
C         14.54418        39.63863         0.59688
C         15.74129        41.77477         0.43921
C         14.50680        42.40616         0.00811
C         15.69067        44.58187        -0.18022
C         14.64457        43.74720        -0.49074
C         15.55074        46.09171        -0.05490
C         14.28117        46.81001        -0.54908
C         15.63701        48.91121        -0.79007
C         14.39508        48.17686        -0.81680
C         15.66928        50.29048        -0.80856
C         18.36836        10.46065        -1.49124
C         18.42420        11.87306        -1.44850
C         17.25772        12.66768        -1.54394
C         18.47201        14.71849        -0.82284
C         17.24313        14.04827        -1.23121
C         18.44785        16.02372        -0.36220
C         17.18228        16.79205        -0.44059
C         18.30614        18.64705         0.95679
C         17.12225        18.14212         0.19398
C         18.25322        20.09962         1.41045
C         16.95335        20.85994         1.27248
C         18.29850        23.01659         1.47501
C         16.97008        22.35830         1.37205
C         18.24685        24.43744         1.88696
C         16.93411        25.16164         1.74549
C         18.25421        27.38054         2.02796
C         16.92921        26.65683         1.90415
C         18.23753        28.88085         1.87494
C         16.94657        29.54867         1.54096
C         18.22749        31.76678         1.66241
C         16.93615        31.02773         1.63084
C         18.22496        33.22404         1.43896
C         17.01207        33.93996         1.35508
C         18.18687        36.11257         1.75983
C         16.95156        35.37622         1.42379
C         18.19411        37.61591         1.65522
C         16.92507        38.26554         1.22974
C         18.20341        40.40974         1.21113
C         16.94427        39.65755         1.02392
C         18.18927        41.88885         0.88189
C         16.91942        42.51342         0.45030
C         18.13591        44.61362         0.05885
C         16.92612        43.92995         0.18551
C         18.13599        46.12367         0.02272
C         16.83928        46.79524        -0.40610
C         18.16033        48.85315        -0.71562
C         16.87979        48.14088        -0.65288
C         18.16729        50.25812        -0.60820
C         16.89941        51.02863        -0.34491
C         18.25100        53.16914        -0.52902
C         17.05112        52.48423        -0.71863
C         18.32245        54.58716        -0.62829
C         20.59581         5.99958        -1.17409
C         20.30256         7.28996        -1.64755
C         19.33937         8.22861        -1.27176
C         20.81867        10.30285        -1.37975
C         19.51916         9.64865        -1.46004
C         20.82566        11.71494        -1.06781
C         19.68474        12.49686        -1.15993
C         20.92433        14.51692        -0.28250
C         19.77753        14.01036        -1.11509
C         20.82642        15.83863         0.36180
C         19.62006        16.68268         0.19331
C         20.77583        18.56153         1.45231
C         19.59777        17.93806         0.78095
C         20.76082        20.06728         1.73736
C         19.51865        20.85518         1.51745
C         20.75452        23.01862         1.78350
C         19.48218        22.26639         1.60637
C         20.72980        24.48050         1.54606
C         19.54860        25.20948         2.12789
C         20.69374        27.39025         1.44603
C         19.51942        26.67902         1.72565
C         20.67596        28.84674         1.27989
C         19.49505        29.54570         1.46948
C         20.68715        31.74398         0.93483
C         19.42549        30.99554         1.23474
C         20.76313        33.19944         1.20630
C         19.52067        33.89259         1.62503
C         20.74100        36.13122         1.47385
C         19.50385        35.39000         1.76037
C         20.71611        37.52825         1.40951
C         19.50209        38.29933         1.42233
C         20.67467        40.43436         0.88026
C         19.49897        39.68979         1.17426
C         20.63642        41.78886         0.40235
C         19.44352        42.51468         0.41998
C         20.49726        44.51206        -0.58744
C         19.38088        43.88626        -0.00446
C         20.28261        45.80155        -1.15367
C         19.27723        46.66603        -0.79015
C         20.62459        48.78706        -0.72734
C         19.37474        48.11351        -0.88384
C         20.51372        50.09301        -0.21922
C         19.38748        50.92097        -0.36476
C         20.85977        53.19850        -0.33365
C         19.48749        52.40025        -0.19309
C         20.79113        54.63801        -0.60919
C         19.54122        55.32673        -0.58848
C         20.76311        57.47537        -0.51588
C         19.55368        56.74830        -0.61791
C         20.79615        58.90663        -0.61405
C         23.07010         3.23442        -0.82357
C         21.87867         3.97051        -1.03964
C         23.14311         5.99111        -1.74516
C         21.84619         5.33278        -1.37513
C         23.33076         7.46819        -1.66400
C         22.21097         8.30219        -1.91456
C         23.38212        10.33236        -1.30875
C         22.06944         9.61833        -1.44907
C         23.31103        11.52876        -0.40635
C         22.03322        12.30256        -0.43634
C         23.31132        14.31730         0.30049
C         22.06731        13.74659        -0.11608
C         23.36591        15.74202         0.65852
C         22.07666        16.45096         0.92271
C         23.23713        18.74012         0.71120
C         22.17987        17.89617         1.41965
C         23.21452        20.10812         0.87097
C         22.16421        20.73695         1.80304
C         23.13019        23.04446         0.93019
C         22.05877        22.27648         1.70139
C         23.27622        24.50105         1.34358
C         21.98225        25.25310         1.56447
C         23.15256        27.38059         0.95630
C         21.96037        26.70571         1.30965
C         23.14514        28.80825         0.72407
C         21.90982        29.56090         0.92869
C         23.08035        31.72560         0.39520
C         21.91855        30.95161         0.86213
C         23.16803        33.19600         0.68766
C         21.95625        33.87877         1.13682
C         23.28957        36.08975         1.07974
C         21.99292        35.33965         1.44864
C         23.19001        37.52970         0.89520
C         22.00503        38.25335         1.33487
C         23.19893        40.46133         0.58212
C         21.97181        39.79498         1.07186
C         23.18796        41.80151         0.13880
C         21.86853        42.41409        -0.17328
C         23.14283        44.60174        -0.89590
C         21.81546        43.82819        -0.73184
C         23.19061        46.10897        -0.78905
C         22.20739        46.86191        -1.33235
C         23.28956        49.01004        -0.77949
C         22.00936        48.33828        -1.23203
C         23.38475        50.42646        -0.90137
C         22.38117        51.24899        -0.35155
C         23.20376        53.30537        -1.47918
C         22.14176        52.55597        -0.67855
C         23.28309        54.69042        -0.88919
C         22.02167        55.35619        -0.69773
C         23.25653        57.43061        -0.20316
C         21.99462        56.75252        -0.48359
C         23.25623        58.97933        -0.26440
C         21.99053        59.63167        -0.64356
C         23.29207        61.64111        -1.16693
C         22.06400        60.99341        -1.04543
C         24.30275         3.82294        -0.92335
C         25.68145         5.91150        -1.17471
C         24.43266         5.17824        -1.45692
C         25.75462         7.27151        -1.13118
C         24.55753         8.07187        -1.30588
C         25.79797        10.13023        -0.71459
C         24.60626         9.48220        -1.07452
C         25.80073        11.54239        -0.36988
C         24.58097        12.23872        -0.18639
C         25.76505        14.35869         0.00868
C         24.54057        13.61700         0.13070
C         25.72005        15.74761        -0.29659
C         24.55878        16.56434         0.17216
C         25.56432        18.96113        -0.35070
C         24.35458        18.06116        -0.01658
C         25.61225        20.30179         0.22910
C         24.40040        20.92774         0.60201
C         25.64882        23.04283         0.72937
C         24.44023        22.31995         0.83603
C         25.65003        24.49950         0.66060
C         24.46026        25.23589         0.84933
C         25.55184        27.36060         0.28934
C         24.39291        26.66036         0.73280
C         25.56002        28.76401         0.13699
C         24.32599        29.46904         0.32794
C         25.58228        31.64659        -0.04299
C         24.30438        30.91783         0.02624
C         25.45623        33.13943        -0.32100
C         24.34692        33.87409         0.42903
C         25.59043        36.03358         0.19793
C         24.45040        35.32801         0.53047
C         25.62008        37.51563         0.23416
C         24.36493        38.27977         0.49830
C         25.62925        40.43298         0.42990
C         24.41033        39.75476         0.62345
C         25.64507        41.80019         0.08762
C         24.40273        42.45604        -0.14146
C         25.71160        44.57839        -0.39792
C         24.43046        43.85703        -0.61933
C         25.69802        46.04476        -0.26082
C         24.42345        46.82173        -0.35218
C         25.72891        49.00346        -0.57845
C         24.47793        48.28761        -0.62527
C         25.82923        50.33306        -0.96923
C         24.62047        51.07469        -1.32820
C         25.82598        53.30661        -1.20924
C         24.57483        52.57813        -1.52248
C         25.78673        54.64145        -0.84175
C         24.51541        55.35409        -0.72716
C         25.75150        57.47093        -0.34603
C         24.52829        56.73585        -0.40538
C         25.73446        58.88987        -0.40749
C         24.54485        59.63184        -0.54158
C         24.51259        60.98203        -0.94936
C         27.10858         7.94027        -0.97835
C         28.24448        10.11914        -0.56921
C         27.06224         9.43276        -0.72196
C         28.29235        11.54689        -0.33362
C         27.02273        12.23135        -0.19522
C         28.22163        14.38171        -0.14448
C         27.00514        13.65597        -0.09893
C         28.18778        15.74261        -0.52494
C         26.89777        16.26898        -0.83812
C         28.07949        18.82059        -0.29755
C         26.86922        18.42340        -0.75569
C         28.12686        20.14137         0.38152
C         26.86295        20.94322         0.41765
C         28.15146        23.09854         0.69197
C         26.88118        22.33237         0.64425
C         28.10196        24.51880         0.28200
C         26.86341        25.17108         0.29936
C         28.02893        27.33864        -0.43210
C         26.74573        26.58677        -0.09865
C         28.00715        28.82272        -0.38599
C         26.79908        29.48408        -0.17260
C         28.03387        31.68434         0.04778
C         26.75252        30.95342        -0.16175
C         28.03819        33.17710         0.17813
C         26.80510        33.89117        -0.25968
C         28.21619        36.14788        -0.16582
C         26.86160        35.38694        -0.21791
C         28.16281        37.51856         0.44505
C         26.89778        38.18534         0.62390
C         28.15868        40.39772         0.41931
C         26.89233        39.73077         0.69267
C         28.12751        41.76787         0.02275
C         26.92445        42.46581        -0.10631
C         28.18928        44.62657        -0.28975
C         26.91553        43.90715        -0.30404
C         28.24982        46.00936        -0.19207
C         26.99436        46.75691        -0.43793
C         28.21706        48.97497        -0.01970
C         27.00295        48.23651        -0.48889
C         28.28055        50.42403        -0.36268
C         27.11636        51.04204        -1.07266
C         28.33463        53.26520        -0.70638
C         27.11209        52.56757        -1.18653
C         28.25680        54.63955        -0.48831
C         27.02154        55.36001        -0.55369
C         26.98204        56.74301        -0.35719
C         29.48181        12.24139        -0.22443
C         30.68985        14.48643        -0.29879
C         29.51225        13.69236         0.18558
C         30.63238        15.87597        -0.48286
C         29.36551        16.55717        -0.58452
C         30.63829        18.77670        -0.50468
C         29.32320        18.04705        -0.65737
C         30.67453        20.18627        -0.05276
C         29.45362        20.85348         0.45286
C         30.65976        23.05711         0.08321
C         29.47346        22.34863         0.57768
C         30.61334        24.47991        -0.10166
C         29.32970        25.21287        -0.04292
C         30.50663        27.29200        -0.72933
C         29.29428        26.57948        -0.31809
C         30.54707        28.76508        -0.75704
C         29.27747        29.55241        -0.71322
C         30.53028        31.80289        -0.05174
C         29.30199        31.05924        -0.41776
C         30.49083        33.12649         0.65031
C         29.30199        33.95022         0.35800
C         30.59221        36.05501         0.68433
C         29.36357        35.32574         0.39621
C         30.60659        37.51237         0.68711
C         29.35731        38.23448         0.58152
C         30.63360        40.36480         0.44425
C         29.36393        39.67281         0.52138
C         30.66585        41.74124         0.14699
C         29.42649        42.35214        -0.48566
C         30.73934        44.62791        -0.32191
C         29.43560        43.87601        -0.50641
C         30.69360        46.07077        -0.02519
C         29.48518        46.74077        -0.05615
C         30.75628        48.94315        -0.01068
C         29.47782        48.20219         0.37197
C         30.75307        50.35059        -0.22591
C         29.58549        51.12733        -0.39365
C         29.54628        52.52877        -0.51990
C         31.86560        16.62078        -0.50380
C         33.11434        18.73661        -0.30999
C         31.90557        18.00962        -0.42204
C         33.13238        20.14956        -0.23872
C         31.87021        20.86875        -0.07814
C         33.09448        22.98537        -0.28380
C         31.87964        22.32623        -0.06468
C         33.08026        24.40924        -0.72812
C         31.80697        25.13489        -0.40020
C         33.09859        27.29936        -0.64273
C         31.83415        26.55283        -0.76641
C         33.07831        28.71067        -0.78123
C         31.77495        29.29863        -1.08381
C         33.02600        31.79108         0.06215
C         31.73555        31.37645        -0.50635
C         33.05199        33.27563         0.26185
C         31.79590        33.89258         0.77108
C         33.06299        36.03214         1.01928
C         31.80138        35.36606         0.81493
C         33.03833        37.51046         1.35747
C         31.79906        38.22111         0.86525
C         33.08890        40.34845         0.69462
C         31.84053        39.64052         0.70045
C         33.11245        41.74683         0.49519
C         31.89942        42.46086         0.20771
C         33.16163        44.59749         0.23641
C         31.95259        43.87005         0.03357
C         33.14058        46.03904         0.19674
C         31.95825        46.77583         0.11957
C         31.94355        48.21015         0.02872
C         34.33911        20.86949        -0.21430
C         35.55036        23.03705        -0.17451
C         34.35405        22.29362        -0.23066
C         35.54576        24.47143        -0.14900
C         34.32505        25.17017        -0.34826
C         35.50630        27.31089        -0.11989
C         34.30957        26.58344        -0.35980
C         35.43167        28.77317        -0.02651
C         34.22898        29.49392        -0.49889
C         35.52382        31.77663        -0.33519
C         34.24741        30.95004        -0.09374
C         35.52705        33.04247         0.53401
C         34.35505        33.95053         0.55201
C         35.49718        36.11605         1.30042
C         34.27478        35.34749         1.09116
C         35.53550        37.52780         1.07193
C         34.31976        38.23215         0.99197
C         35.59171        40.32073         0.75386
C         34.32909        39.62567         0.81982
C         35.57528        41.73496         0.64412
C         34.36735        42.45989         0.52411
C         34.35817        43.87700         0.43801
C         36.73710        25.21585         0.05041
C         37.96795        27.37007         0.25798
C         36.73700        26.62762         0.07298
C         38.02562        28.74811         0.26207
C         36.75382        29.51787         0.16621
C         38.10619        31.64244         0.28157
C         36.83537        30.97521        -0.16573
C         37.99401        32.98329         0.87202
C         36.68081        33.38622         1.20540
C         37.99774        36.04110         1.42576
C         36.69038        35.50841         1.65901
C         38.02682        37.41915         1.12322
C         36.81716        38.18826         1.01666
C         36.80591        39.59128         0.85091
C         39.25079        29.47247         0.53692
C         40.43745        31.62798         1.07756
C         39.28725        30.84438         0.67452
C         40.38600        32.98445         1.27014
C         39.14179        33.74706         1.24877
C         39.13992        35.14757         1.46695
O         17.30812        24.53952         3.02477
O         17.49167        31.46310         2.90644
O         19.65495        34.53615         2.95560
O         23.61406        10.99311        -2.67870
O         18.04351        18.97801         2.34445
O         27.94307        32.30459         1.37583
O         21.60534        22.74686         2.99023
O         21.20189        15.70016         1.81009
O         22.91196        24.86022         2.68637
O         12.94474        33.92472        -0.89145
O         12.92144        31.31596        -1.16894
O         15.72435        31.14127        -0.41696
O         15.93359        27.04646         2.90018
O         12.73102        40.11356         2.02638
O         18.05748        36.95891         2.95896
O         22.18684        39.23394         2.40670
O         27.16872        47.46689        -1.73544
O         28.99200        22.84670         1.87208
O         11.65403        24.90727        -1.43612
O         27.87227        49.98095         0.99252
O         26.82163        38.90631         1.89888
O         31.16837        33.24749         1.93371
O         24.63603        51.69263        -2.70179
O         28.89478        20.16763         1.63059
O         21.73174        42.67390        -1.62092
O         27.39532        51.68614        -2.33663
O         18.16073        41.42310         2.27568
O         35.88762        29.28907         1.31028
O         17.36156        18.04692        -1.24357
O         13.32701        36.96150        -0.89223
O         30.19719        44.34529        -1.67629
O         20.22726        52.86016         0.95289
O         24.52065        18.64646        -1.33521
O         22.42303        11.45193         0.73655
O         23.21238        58.27090         1.00197
O         21.55299        50.59041         0.55554
O         37.79894        31.39729        -1.17226
O         33.69134        33.99084        -0.80726
O         21.22777        46.22681        -2.09225
O         29.99221        18.63353        -1.83700
O         24.39826        16.18238         1.58336
O         23.35316        31.34199        -1.00434
O         26.81604        17.37269        -1.67729
O          9.79407        35.60319         2.00578
O         31.06718        26.77440        -2.01498
O         19.73965        31.39133        -0.15418
O         26.91220        34.64986        -1.50402
O         13.63471        44.21788        -1.31554
O         36.57777        34.27376         2.28856
O         27.15468        26.80478        -1.49454
O          8.89892        29.12556         1.24442
O         23.89412         5.35389        -2.81494
O         14.98726        17.98464         1.48014
O         20.53536        19.07632         2.78849
O         24.90153        38.03079        -0.93522
O         21.93479        48.70055        -2.73035
O         24.96583        46.45897         0.96950
O         21.18506         7.74204        -2.66101
O         23.92927        44.07579        -2.00284
O         16.63700        21.53056         2.54764
O         29.14469        30.56309        -1.77661
O         18.29967        28.25783         3.20136
O         31.81567        30.57651        -1.64285
O         22.96561        35.69161         2.47341
O         33.57895        31.08098         1.22105
O         24.99789        33.15301        -1.69775
H         25.39532        33.93969        -2.14054
O         29.65146        13.68118         1.67419
H         29.44532        14.58513         1.99532
O         12.73334        18.47778        -1.44619
H         13.31028        18.88273        -2.12572
O         35.42923        32.13441        -1.72640
H         36.34627        32.30161        -2.04693
O         22.74278        53.46182        -2.84981
H         23.24217        52.80665        -3.39121
O         10.26491        40.63339         2.25011
H         11.11533        40.70429         2.74803
O         20.10941        14.40763        -2.50221
H         19.34570        14.16119        -3.06710
O         18.33157        46.53660         1.42119
H         17.49742        46.30158         1.89258
O         22.65087        17.78781         2.76987
H         22.00022        17.24924         3.26918
O         16.75719        51.06095         1.13369
H         17.57956        51.45391         1.50012
O         33.07636        24.33687        -2.21852
H         32.65658        25.15814        -2.55896
O         27.87974         7.28894         0.04198
H         27.49104         7.51111         0.91260
O         19.76506        25.22949         3.56457
H         18.89464        25.06674         3.99993
O         14.08600        29.95438         2.58241
H         14.22985        29.15870         3.13966
O         28.61727        36.43122        -1.53946
H         28.34080        35.66587        -2.09522
O         22.59339        23.06908        -0.43932
H         23.30073        23.38170        -1.04325
O         29.48658        48.13842         1.82767
H         29.09905        48.98725         2.14641
O         15.45563        46.26250         1.42033
H         15.30197        47.21761         1.59181
O         21.84922        50.12587        -2.86667
H         22.69345        50.35931        -3.33088
O         23.80128         9.92888        -3.63567
H         22.94807         9.91784        -4.13451
O         29.48858        41.90102        -1.87474
H         29.96384        42.60682        -2.37543
O         32.95394        37.60156         2.82620
H         33.71767        37.10985         3.19675
O         22.71674        20.47925         3.10338
H         22.19976        21.00743         3.75288
O          8.68320        31.83025        -2.06091
H          9.52637        32.31259        -2.20661
O         13.09436        36.78519         2.50158
H         13.98059        37.04949         2.82204
H          5.01434        31.20165        -0.71685
H          5.02934        33.65261        -0.64990
H          7.57784        26.80452        -0.59879
H          6.21086        29.05045        -0.43919
H          6.22231        35.80404        -0.43756
H          7.43130        37.96734        -0.12553
H         10.06706        22.29437        -0.15053
H          8.71765        24.78294         0.21235
H          8.57544        40.06767         0.02231
H          9.83378        42.40197         0.33818
H         12.51316        18.40968         0.59368
H         11.32143        20.46446        -0.41781
H         10.96011        44.41020         0.69484
H         12.14062        46.95065        -0.16371
H         15.09547        14.19227        -1.46534
H         13.78139        16.20592        -0.94630
H         13.47340        48.74855        -1.01077
H         14.72428        50.85169        -0.88172
H         17.38328         9.97626        -1.55730
H         16.30069        12.17547        -1.77224
H         16.13964        53.07116        -0.91638
H         17.38213        55.14299        -0.76262
H         19.83001         5.46682        -0.58940
H         18.42973         7.89755        -0.74871
H         18.59995        57.29396        -0.66978
H         19.85025        59.43421        -0.81040
H         22.98624         2.19733        -0.46933
H         20.92190         3.47017        -0.82950
H         23.30930        62.69206        -1.48811
H         21.13576        61.52976        -1.28931
H         25.20718         3.30207        -0.57732
H         26.58703         5.32142        -0.96219
H         26.69644        59.41653        -0.50143
H         25.45796        61.51571        -1.12283
H         27.66769         7.77232        -1.94006
H         29.19377         9.56415        -0.61681
H         29.16378        55.18871        -0.19280
H         27.92439        57.29448        -0.22334
H         30.43779        11.71053        -0.35316
H         31.68174        14.00966        -0.24983
H         31.72868        50.85533        -0.31257
H         30.47915        53.09823        -0.38622
H         32.81013        16.05670        -0.47483
H         34.06843        18.18839        -0.30875
H         34.10019        46.57150         0.27608
H         32.90576        48.73363        -0.08672
H         35.29342        20.32241        -0.23901
H         36.51045        22.50637        -0.09384
H         36.52942        42.28374         0.64221
H         35.30808        44.42454         0.52974
H         37.68694        24.67833         0.19199
H         38.89700        26.79432         0.38865
H         38.98943        37.92501         0.95591
H         37.75894        40.14075         0.82138
H         40.15890        28.88065         0.73156
H         41.39438        31.10253         1.21815
H         41.30965        33.51710         1.54363
H         40.13126        35.62423         1.54385
