         320
 CSIRO Nanostructure Databank - Neutral Graphene Oxide Data Set
C         30.24458        31.76683         0.89489
C         30.25683        33.00087         0.83599
C         30.26766        36.20681         0.37825
C         30.25793        37.35774        -0.06201
C         30.33523        40.56718        -1.15197
C         30.38522        41.80307        -1.08681
C         32.58366        28.93304         0.43345
C         31.50243        29.48986         0.65051
C         32.64660        31.61071         0.81512
C         31.33774        30.84042         1.30876
C         32.66407        33.06619         0.71381
C         31.35596        33.87716         0.32918
C         32.58648        36.00087         0.17624
C         31.40262        35.32804         0.85711
C         32.65233        37.50055        -0.06456
C         31.34167        38.16598        -0.74370
C         32.67833        40.35767        -0.73066
C         31.32260        39.66686        -0.39822
C         32.76606        41.92025        -0.74407
C         31.38337        42.65001        -0.34846
C         32.81998        44.58967        -0.46825
C         31.70689        44.09484        -0.65868
C         35.30858        27.29801        -0.31716
C         35.16896        28.61975         0.48425
C         33.93738        29.45841         0.10010
C         35.26521        31.60091         0.70705
C         33.93959        30.82074         0.96096
C         35.20553        32.94817        -0.02760
C         33.96291        33.79157         0.41935
C         34.85915        36.13408         0.49605
C         33.80887        35.20705        -0.14727
C         35.13472        37.37135        -0.07702
C         33.94706        37.99587        -0.78124
C         35.27028        40.28537        -0.59082
C         33.95100        39.55243        -0.74716
C         35.31222        41.68617         0.06455
C         34.00331        42.50656        -0.01615
C         35.40954        44.65085        -0.14256
C         34.09823        44.01830        -0.01760
C         35.70247        46.01515        -0.20308
C         37.80018        27.19022        -0.14087
C         36.45157        26.80839        -0.37663
C         37.80380        28.61232         0.48202
C         36.51629        29.38157         0.10951
C         37.84573        31.51822         0.26927
C         36.55812        30.83082         0.58391
C         37.81753        32.98514         0.49728
C         36.53807        33.68322         0.12510
C         37.78879        35.87121         0.20283
C         36.73096        34.96390        -0.39151
C         37.74254        37.31473        -0.30846
C         36.44084        38.07503         0.24687
C         37.77324        40.25260        -0.00302
C         36.54569        39.50458        -0.28982
C         37.83769        41.67131        -0.56672
C         36.57399        42.47197        -0.27558
C         37.92446        44.59127        -0.24397
C         36.62600        43.86374        -0.28530
C         38.07258        46.14349        -0.37571
C         36.70136        46.70230        -0.54836
C         40.29695        24.48168        -0.61554
C         39.25306        25.16263        -0.60257
C         40.26945        27.18886         0.26666
C         38.96701        26.50903        -0.24253
C         40.24150        28.67870        -0.06910
C         39.06421        29.36318         0.04362
C         40.32172        31.53879        -0.05297
C         39.00376        30.83168        -0.01857
C         40.41683        33.00326         0.27797
C         39.10865        33.74716         0.37722
C         40.35805        35.93612        -0.19635
C         39.08776        35.12649        -0.31792
C         40.23992        37.39918        -0.16256
C         39.04120        38.04191         0.05977
C         40.30438        40.21212         0.50465
C         38.95744        39.49086         0.57465
C         40.33672        41.69360         0.30934
C         39.11249        42.43097        -0.12866
C         40.19431        44.54824         0.89642
C         39.06028        43.90761         0.07399
C         40.21715        46.06424         0.89928
C         38.80692        46.66642         0.94829
C         40.09391        48.77277         0.98984
C         39.02071        48.13619         0.96499
C         42.93621        24.51559        -0.49068
C         41.59602        25.08092        -0.38225
C         42.88313        27.18803        -0.03633
C         41.55478        26.44629        -0.09602
C         42.72780        28.70421         0.25349
C         41.54660        29.31778        -0.54371
C         42.74512        31.55702        -0.46567
C         41.57731        30.83709        -0.41843
C         42.67255        33.02457        -0.89004
C         41.73167        33.81204         0.07835
C         42.74072        36.00834        -0.91770
C         41.54663        35.26453        -0.32819
C         42.80901        37.38248        -0.20875
C         41.50629        38.17339        -0.50725
C         42.75598        40.41078        -0.31601
C         41.58307        39.54044         0.14740
C         42.85544        41.71074         0.47499
C         41.55087        42.41170         0.89111
C         42.78562        44.59743         0.98049
C         41.53774        43.91015         0.46030
C         42.73076        46.07069         1.19386
C         41.40059        46.78159         1.04592
C         42.67832        48.77637         1.43869
C         41.39162        48.24108         1.18213
C         43.84883        25.04221         0.21933
C         44.86074        26.79989         1.75796
C         43.97100        26.32839         0.78388
C         45.29411        28.95612         0.12142
C         44.02748        29.49048         0.07830
C         45.29231        31.69086         0.02101
C         43.95183        31.00255         0.30234
C         45.35274        32.90019        -0.89623
C         44.06041        33.72489        -0.98917
C         45.34450        35.94561        -0.58470
C         44.07878        35.22663        -0.91541
C         45.32352        37.43315        -0.67296
C         44.04036        38.19289        -0.58495
C         45.25516        40.34579        -0.24392
C         44.08075        39.65990        -0.27565
C         45.30870        41.86616        -0.35061
C         44.11900        42.49266         0.37065
C         45.33578        44.52912         1.18048
C         44.10027        44.01469         0.43691
C         45.25907        46.04293         1.69362
C         44.11111        46.82755         1.03230
C         43.75793        48.17277         1.63568
C         47.18067        27.63111         1.64776
C         46.30472        26.71524         1.67756
C         47.59759        28.87528         1.14553
C         46.32948        29.69171         0.93900
C         47.80426        31.65111         0.05472
C         46.44805        31.05850         0.34042
C         47.63870        33.18259         0.31284
C         46.67478        33.79541        -0.72844
C         47.82635        35.99482        -0.37900
C         46.53326        35.28226        -0.45582
C         47.83335        37.45897        -0.78107
C         46.57366        38.15517        -0.21633
C         47.80189        40.42917        -0.63634
C         46.52637        39.64181        -0.55251
C         47.80944        41.83372        -0.13909
C         46.63503        42.47338         0.12811
C         47.93088        44.51413         0.89277
C         46.61711        43.78090         0.87150
C         47.67633        45.88791         1.21733
C         46.64618        46.55620         1.35509
C         50.13076        29.04380         1.58215
C         48.77460        29.68126         1.61361
C         50.18619        31.65018         0.75506
C         48.96890        31.02342         0.83445
C         50.23744        33.12339         0.45224
C         48.97624        33.91664         0.32578
C         50.35498        36.01892        -0.09457
C         48.99907        35.33110        -0.15267
C         50.37104        37.43687        -0.73332
C         49.11523        38.22021        -0.30682
C         50.41042        40.42697        -0.90742
C         49.11432        39.67639        -0.79013
C         50.40826        41.87072        -0.46582
C         49.16097        42.35603         0.33611
C         50.40745        44.41745         0.45733
C         49.09212        43.89145         0.56480
C         51.21827        29.64520         1.55798
C         52.61180        31.74421         0.92847
C         51.48612        30.97246         1.08689
C         52.52483        32.93818         0.41567
C         51.53803        33.77460         0.04031
C         52.68609        35.96086        -0.67743
C         51.48042        35.05797        -0.74605
C         52.74322        37.18888        -0.62776
C         51.74402        38.25763        -0.31646
C         52.85781        40.54859        -0.69019
C         51.81808        39.55992        -1.10689
C         52.78287        41.78339        -0.64990
C         51.60964        42.57134        -0.35630
C         51.50777        43.92451         0.14501
O         36.11013        31.39432         1.87409
O         41.22761        39.70469         1.54445
O         38.51949        33.52433         1.70018
O         42.74944        45.11591         2.31919
O         49.64217        40.04544        -2.09833
O         33.81402        43.24737         1.22018
O         33.53216        33.68959         1.78100
O         49.62194        33.81388         1.66503
O         38.89203        34.96226        -1.67942
O         36.11083        39.88111        -1.67691
O         43.80775        41.74186         1.58291
O         47.40358        33.74725        -2.01872
O         44.19365        34.51222        -2.21679
O         40.56964        32.05544         1.35530
O         47.00534        40.13537        -1.84557
O         45.91344        43.66414         2.18302
O         44.65800        37.89803        -1.88001
O         40.16595        42.02104        -1.10485
O         41.41291        38.45325        -1.89302
O         33.24996        39.92142        -1.98778
O         33.91626        30.42013         2.34473
H         34.81015        30.61658         2.72824
O         31.34349        30.74319         2.69634
H         32.22242        30.37806         2.96969
O         41.48827        42.32227         2.32512
H         42.41414        42.17933         2.64772
O         36.45296        38.11961         1.68040
H         37.31335        38.48771         2.01890
O         45.07288        46.03112         3.07777
H         45.61595        45.30397         3.45527
O         42.50378        40.79045        -1.67776
H         42.14941        39.96478        -2.13137
O         44.40764        27.68670         2.67032
H         45.08604        28.39866         2.86389
O         39.81414        44.22470         2.26335
H         40.52494        43.67791         2.69220
O         47.77503        37.51308        -2.21234
H         47.46481        36.64075        -2.56038
O         37.89417        41.60464        -2.01545
H         38.78387        41.27156        -2.27235
O         45.19398        42.17310        -1.76285
H         45.78851        41.54112        -2.24462
O         48.47920        30.06525         2.98362
H         49.29898        30.42803         3.38379
O         31.29759        33.95311        -1.08549
H         30.97418        33.10225        -1.44644
O         49.33702        41.75786         1.64243
H         50.19057        42.06724         2.01451
O         33.92736        37.61296        -2.16855
H         34.70288        38.02703        -2.60699
O         32.77506        38.05170         1.26703
H         32.20285        37.53972         1.88104
O         42.43068        36.15168        -2.30985
H         41.90330        36.99631        -2.44496
O         35.31107        35.74559         1.68492
H         35.84275        36.50169         2.06879
O         34.95672        32.58213        -1.41546
H         34.37244        33.26496        -1.82509
O         35.12586        28.30830         1.84161
H         36.02550        28.02582         2.13663
O         41.65810        44.08581        -0.95569
H         41.16822        43.37168        -1.43365
O         50.35138        37.26251        -2.14139
H         50.15431        38.12987        -2.57246
O         43.39222        27.14469        -1.41533
H         43.33402        26.20760        -1.71779
O         31.14030        42.53180         1.01439
H         30.33396        43.02806         1.25969
O         48.14328        31.40892        -1.32315
H         47.34859        31.58577        -1.88434
O         33.88824        35.05099        -1.58255
H         33.74304        35.93562        -2.02441
O         36.59525        29.51268        -1.32252
H         35.79312        29.99347        -1.64114
O         42.40725        33.89032         1.34496
H         42.57513        32.96451         1.66360
O         51.13787        34.72474        -2.06549
H         50.97864        35.56299        -2.56307
O         46.51796        38.04563         1.21996
H         47.40759        38.29009         1.58305
O         50.68674        36.18866         1.30766
H         50.45200        35.33751         1.77084
O         45.47835        32.24137        -2.18787
H         45.04716        32.80318        -2.87016
O         35.45468        41.32928         1.47187
H         35.06362        42.06769         1.99969
O         51.76556        38.60386         1.04524
H         51.83841        37.77976         1.57622
O         31.50142        35.36965         2.27190
H         30.91878        34.67806         2.65240
O         42.06762        33.04055        -2.18799
H         42.18717        33.94454        -2.56679
O         37.68139        37.32517        -1.72800
H         38.23314        36.54393        -2.04321
O         47.02490        33.37262         1.59531
H         47.74382        33.42120         2.26506
O         37.82743        28.45667         1.91232
H         38.70014        28.04362         2.15234
O         38.71943        39.39526         2.02911
H         39.57427        39.11344         2.43332
O         45.78924        29.85941         2.30352
H         46.51123        30.26542         2.84137
O         51.96018        39.27832        -2.47294
H         52.02273        40.11612        -2.97547
O         40.17722        27.10513         1.73174
H         40.23539        26.15657         1.97781
O         43.59632        31.33842         1.67758
H         42.90617        30.67859         1.94615
O         38.05103        46.20148         2.04233
H         38.58481        45.54391         2.55173
O         42.88523        37.11224         1.20127
H         42.83420        37.95446         1.70118
O         44.43484        47.01658        -0.31760
H         43.70292        47.46381        -0.78857
O         45.74594        27.89838        -0.57198
H         45.02126        27.53186        -1.14357
O         42.29233        28.91129         1.61904
H         42.90760        28.43692         2.22996
O         41.63759        29.06462        -1.96010
H         42.32043        28.37134        -2.12422
O         44.21906        44.51814        -0.90837
H         44.44653        43.78358        -1.52979
O         46.89395        34.80885        -2.88169
H         45.90210        34.66378        -2.88207
O         31.04275        39.83839         0.96898
H         30.29319        39.25123         1.20868
O         32.98169        42.33366        -2.10032
H         33.18794        41.53993        -2.65028
O         49.09952        38.33436         1.13306
H         49.62505        37.58350         1.51673
O         37.81088        35.95864         1.61160
H         37.89147        35.04484         2.00457
O         38.93423        46.45084        -1.44680
H         38.49958        46.22518        -2.29467
O         31.33852        37.95328        -2.12370
H         30.79512        38.64804        -2.55302
O         36.24779        35.32708        -1.58477
H         35.87364        34.54579        -2.04530
O         33.97092        29.80231        -1.28216
H         33.87505        28.97399        -1.80026
