         762
 CSIRO Nanostructure Databank - Neutral Graphene Oxide Data Set
C         23.51004        24.47357         2.23239
C         22.34036        25.19797         2.45801
C         23.52508        27.30193         2.11442
C         22.34074        26.59007         2.39866
C         23.52821        28.77132         2.00681
C         22.31058        29.52881         2.24451
C         23.34640        31.61472         1.46903
C         22.22516        30.86169         1.97882
C         23.21675        32.88597         0.94765
C         21.94767        33.58410         0.86966
C         22.99113        35.70520         0.09609
C         21.83200        34.87681         0.47939
C         23.05558        37.18117         0.43989
C         21.91150        37.80944         1.14568
C         23.11258        39.94070         1.38893
C         21.93581        39.07251         1.60626
C         23.25502        41.27025         2.04125
C         22.19459        41.79629         2.77924
C         23.26755        43.96304         2.78676
C         22.23301        43.13053         3.19737
C         23.11975        46.25757         2.21279
C         21.91714        46.94266         2.00870
C         23.13020        48.55497         0.69335
C         21.91926        48.05785         1.16908
C         26.08257        23.01612         2.02819
C         25.94886        24.39940         1.66896
C         24.71545        25.14201         1.94716
C         25.98175        27.26498         1.63172
C         24.71118        26.55949         1.89105
C         25.94656        28.76241         1.47119
C         24.65957        29.46125         1.62822
C         25.81067        31.58789         0.80265
C         24.70571        30.97629         1.64912
C         25.71190        32.89374         0.37935
C         24.38510        33.54947         0.31506
C         25.53782        35.81525        -0.41516
C         24.29001        34.97973        -0.12239
C         25.58513        37.16038         0.30398
C         24.39362        37.80952         0.60015
C         25.64043        39.91854         1.31209
C         24.37372        39.25096         0.92669
C         25.64776        41.39610         1.41326
C         24.42874        42.05479         1.80520
C         25.54133        44.28195         1.70895
C         24.43381        43.47840         2.09121
C         25.56335        45.79352         1.77594
C         24.32804        46.63324         1.60691
C         25.62550        48.60842         0.75066
C         24.35178        47.90166         0.96019
C         25.64006        50.05492         0.61809
C         28.25150        22.77644         0.87934
C         27.21158        22.28179         1.77578
C         28.18389        24.29628         0.58774
C         27.06197        25.07071         1.13577
C         28.21618        27.15259         0.50873
C         27.10976        26.49686         1.05239
C         28.10731        28.61180         0.07704
C         27.04152        29.43160         0.75496
C         28.16910        31.47046         0.00484
C         27.02314        30.81294         0.55559
C         28.08693        32.87027        -0.41087
C         26.85457        33.64601        -0.13083
C         28.05229        35.81772        -0.52569
C         26.82230        35.01178        -0.28997
C         28.06737        37.19900         0.02410
C         26.86096        37.82107         0.42224
C         28.11663        40.01832         0.84238
C         26.91501        39.18782         1.00471
C         28.10100        41.40620         0.99824
C         26.84270        42.09269         1.27780
C         28.06965        44.31368         1.02543
C         26.75577        43.57477         1.21459
C         28.09779        45.80206         1.13402
C         26.82892        46.52906         1.44080
C         28.09952        48.65468         0.93166
C         26.80800        47.94631         0.99068
C         28.09317        50.19163         0.86685
C         26.76332        50.80526         0.78028
C         30.89455        20.02311         0.64781
C         29.68315        20.73199         0.92504
C         30.71090        22.85077         0.27312
C         29.57054        22.09392         0.73599
C         30.62352        24.21630         0.01271
C         29.43041        24.99744         0.25371
C         30.58431        27.13229        -0.30500
C         29.38194        26.39550         0.15409
C         30.61377        28.62066        -0.30453
C         29.40236        29.37672         0.02021
C         30.65041        31.49625        -0.39591
C         29.40098        30.76361        -0.14959
C         30.66487        32.89644        -0.50221
C         29.38872        33.60655        -0.71167
C         30.63246        35.78715        -0.28897
C         29.38737        35.09917        -0.67099
C         30.55974        37.16504        -0.02606
C         29.32373        37.85258         0.15327
C         30.62456        40.05726         0.55313
C         29.35955        39.25413         0.65634
C         30.55343        41.52118         0.59568
C         29.35636        42.16796         0.84019
C         30.57342        44.32538         1.14295
C         29.37398        43.61446         1.02035
C         30.58999        45.71442         1.79191
C         29.36192        46.54128         1.41180
C         30.20410        48.82483         2.17150
C         29.23832        48.01658         1.63379
C         30.37749        50.23075         1.88665
C         29.29348        50.93187         1.35951
C         30.50852        53.03692         1.60251
C         29.35733        52.36157         1.29147
C         33.26399        18.50369        -0.28943
C         33.31945        19.93328         0.02869
C         32.04834        20.66888         0.29017
C         33.27401        22.85616        -0.28891
C         32.03789        22.14958         0.22821
C         33.09257        24.23440        -0.82634
C         31.78858        24.91429        -0.59728
C         33.16554        27.09676        -0.48854
C         31.87168        26.37681        -0.30407
C         33.19877        28.59553        -0.38788
C         31.90712        29.35494        -0.20142
C         33.12449        31.47747        -0.52649
C         31.89415        30.80543        -0.42024
C         33.13632        32.91391        -0.48487
C         31.89305        33.62328        -0.46479
C         33.12255        35.71868        -0.14136
C         31.88584        35.05496        -0.31630
C         33.07115        37.12212         0.43014
C         31.85523        37.90961        -0.04994
C         33.10112        40.14959         0.32823
C         31.85988        39.39679         0.04325
C         33.08532        41.48528         0.53550
C         31.81984        42.28770         0.29190
C         33.05749        44.35784         0.88375
C         31.84437        43.67987         0.89892
C         33.08703        45.82407         0.85765
C         31.83680        46.50535         1.40870
C         33.12478        48.62593         1.62213
C         32.09237        47.79695         2.01656
C         33.06958        50.08668         1.99001
C         31.70524        50.88810         2.10093
C         32.94611        53.08797         1.79429
C         31.75066        52.36469         1.87082
C         33.00886        54.53506         1.84266
C         35.53194        18.51603        -1.24384
C         34.34582        17.84077        -0.77836
C         35.57862        19.90221        -1.24231
C         34.57171        20.68115        -0.49696
C         35.56762        22.84222        -1.27174
C         34.49977        22.14416        -0.73671
C         35.52652        24.29328        -1.49192
C         34.31443        25.02246        -1.14236
C         35.32509        27.18082        -1.84348
C         34.28234        26.38937        -1.14840
C         35.42768        28.66404        -1.63625
C         34.35744        29.35223        -0.86883
C         35.63893        31.41810        -0.89245
C         34.33605        30.72370        -0.79288
C         35.65874        32.87619        -0.57416
C         34.36911        33.62646        -0.45026
C         35.63750        35.77232        -0.25376
C         34.35110        35.01905        -0.24390
C         35.64610        37.25373        -0.12291
C         34.37465        37.92493         0.32323
C         35.61045        40.17256        -0.00732
C         34.37705        39.40869         0.32680
C         35.62356        41.49856         0.42650
C         34.37750        42.16050         0.85355
C         35.61758        44.45194         0.79883
C         34.36626        43.67401         0.99222
C         35.58713        45.83845         0.76971
C         34.34689        46.58002         0.89822
C         35.51190        48.79839         0.92065
C         34.29058        47.97028         1.07465
C         35.26321        50.25624         0.71490
C         34.28308        50.88881         1.62326
C         35.24840        53.13503         0.73136
C         34.23694        52.39506         1.57258
C         35.23610        54.62095         0.77199
C         34.11894        55.25169         1.51518
C         37.97694        15.60205        -1.57949
C         36.83888        16.29279        -1.36043
C         37.85511        18.40551        -2.35922
C         36.63837        17.69110        -1.81533
C         37.85873        19.90561        -2.45536
C         36.62244        20.66726        -1.95844
C         37.88431        22.80227        -2.15167
C         36.75734        22.13110        -1.73848
C         37.91307        24.28332        -2.08683
C         36.61874        24.98534        -1.95723
C         37.71227        27.22130        -2.79380
C         36.42332        26.38023        -2.53868
C         37.80669        28.69689        -2.48889
C         36.70396        29.38506        -1.91358
C         37.94600        31.50253        -1.92481
C         36.78173        30.75717        -1.59331
C         37.99930        32.94786        -1.69999
C         36.90468        33.62249        -0.94001
C         37.83652        35.92055        -1.62717
C         36.84236        35.10878        -0.86112
C         37.84547        37.42832        -1.47175
C         36.55644        38.10701        -1.01459
C         37.99411        40.23590        -0.62294
C         36.76932        39.50763        -0.46950
C         38.04561        41.57322        -0.18406
C         36.90522        42.19590         0.50785
C         38.16821        44.44640         0.42170
C         36.91235        43.72458         0.76348
C         38.19758        45.89124         0.75868
C         36.86279        46.59259         0.88976
C         38.05390        48.73104         0.19041
C         36.82854        48.09222         0.73949
C         38.02733        49.99465        -0.35301
C         36.15548        51.04522         0.01692
C         37.69449        53.06144        -0.08583
C         36.45277        52.41692         0.24191
C         37.75996        54.47312         0.15416
C         36.53748        55.35483         0.46835
C         38.11842        56.80002         1.72696
C         36.86156        56.32989         1.57203
C         40.65868        14.23768        -1.40880
C         40.55305        15.60215        -1.76059
C         39.22551        16.21640        -2.08645
C         40.36462        18.54378        -1.88748
C         39.18302        17.69956        -2.34859
C         40.38133        19.90127        -2.58603
C         39.11667        20.63608        -2.56338
C         40.36657        22.84307        -3.02487
C         39.06986        22.09742        -2.72527
C         40.40592        24.31713        -2.81455
C         39.12708        25.03571        -2.51663
C         40.30174        27.22313        -3.07885
C         39.00666        26.46735        -2.96564
C         40.27989        28.72075        -3.08386
C         39.01523        29.42213        -2.70459
C         40.27108        31.62618        -2.85552
C         39.06475        30.82334        -2.47134
C         40.30995        33.10788        -2.60263
C         39.11174        33.70078        -1.98227
C         40.39241        35.90775        -1.82587
C         39.08493        35.19095        -1.98835
C         40.43105        37.38471        -1.53510
C         39.14551        38.16567        -1.50515
C         40.43273        40.23915        -1.19519
C         39.21643        39.58556        -1.07955
C         40.44810        41.71192        -1.09819
C         39.18754        42.40181        -0.56024
C         40.59789        44.45045        -0.09643
C         39.27117        43.79206        -0.05487
C         40.65461        45.94508         0.18882
C         39.40032        46.68185         0.41726
C         40.49412        48.87040        -0.02097
C         39.33856        48.07512         0.26379
C         40.41312        50.27089        -0.26217
C         39.11660        50.92561        -0.34388
C         40.17214        53.11285        -0.72890
C         38.95187        52.32245        -0.35200
C         40.12970        54.62761        -0.68297
C         38.99530        55.20110         0.08355
C         40.45197        57.12400         0.85105
C         39.18837        56.34168         0.87440
C         40.85077        57.95395         1.98914
C         42.88862        14.28609        -0.28544
C         41.73328        13.62896        -0.75073
C         43.34084        15.48845        -0.83366
C         41.69136        16.41188        -1.97921
C         42.85150        18.60035        -2.09227
C         41.67880        17.82690        -2.05514
C         42.88446        20.02315        -2.07864
C         41.70312        20.63590        -2.74904
C         42.97307        22.84697        -2.69082
C         41.73230        22.09598        -3.22603
C         42.89120        24.35708        -2.66224
C         41.56830        25.02266        -2.78332
C         42.79328        27.27417        -2.42760
C         41.52953        26.50612        -2.60995
C         42.85377        28.74182        -2.63597
C         41.59689        29.45597        -2.97533
C         42.83537        31.67294        -2.59176
C         41.60211        30.94491        -2.95233
C         42.84586        33.08126        -2.61896
C         41.61044        33.83734        -2.51139
C         42.83734        35.98182        -2.27456
C         41.63615        35.21533        -2.24116
C         42.87071        37.39928        -2.08114
C         41.68917        38.13798        -1.75712
C         42.86009        40.31535        -1.73559
C         41.67719        39.55408        -1.55618
C         42.91366        41.73563        -1.48971
C         41.73662        42.43370        -1.08891
C         42.93471        44.57192        -0.97692
C         41.75495        43.80926        -0.77241
C         42.91061        46.02929        -0.81435
C         41.81969        46.69556        -0.30734
C         42.81740        48.97640        -0.77510
C         41.84052        48.17181         0.07442
C         42.86110        50.39422        -0.25028
C         41.56883        51.08113        -0.43621
C         42.71163        53.22568        -0.81266
C         41.52238        52.47090        -0.68642
C         42.68067        54.66097        -1.15728
C         41.36693        55.49633        -1.01946
C         42.91968        57.29262         0.07925
C         41.55989        56.72919        -0.12879
C         43.06303        58.31691         1.02262
C         42.06163        58.59706         1.98588
C         44.55495        16.28908         1.18221
C         44.11786        16.49039        -0.16298
C         44.88144        18.87074        -0.02566
C         44.35850        17.76338        -0.73824
C         44.89072        20.23812        -0.52311
C         43.95459        20.78111        -1.50623
C         45.04593        22.99859        -1.32511
C         44.00212        22.20089        -1.81103
C         45.12063        24.43689        -1.58402
C         43.99048        25.13065        -2.04645
C         45.26124        27.22462        -2.12953
C         44.05135        26.52688        -2.22768
C         45.30128        28.56551        -2.83222
C         44.04211        29.40396        -2.58003
C         45.29727        31.58984        -3.07719
C         44.12441        30.90797        -2.34963
C         45.33119        33.09333        -2.74556
C         44.08581        33.79427        -2.69213
C         45.35008        36.04397        -2.81278
C         44.05381        35.27327        -2.72337
C         45.34576        37.48604        -2.43964
C         44.11665        38.12653        -2.22910
C         45.39009        40.36541        -2.27760
C         44.06546        39.60624        -2.22596
C         45.39894        41.79995        -1.87808
C         44.13647        42.48687        -1.60237
C         45.35559        44.66757        -1.59506
C         44.11374        43.88902        -1.39318
C         45.43808        46.07632        -1.12723
C         44.15087        46.80191        -1.10572
C         45.42290        48.94931        -0.44051
C         44.16561        48.28261        -0.92891
C         45.44433        50.44619        -0.23950
C         44.11501        51.17454        -0.17671
C         45.36128        53.31349        -0.70880
C         44.03864        52.64224        -0.43582
C         45.33964        54.69674        -1.26639
C         44.00456        55.42451        -1.20291
C         45.30402        57.47786        -0.62624
C         44.04359        56.79274        -0.65105
C         45.27156        17.26280         1.82189
C         46.40987        19.45401         1.83719
C         45.51110        18.54554         1.22921
C         46.61441        20.73677         1.24627
C         45.82009        21.12810         0.11067
C         47.09322        23.23258         0.05112
C         46.00503        22.44990        -0.39860
C         47.41766        24.47865        -0.68452
C         46.29075        25.18077        -1.30798
C         47.66046        27.27323        -1.46131
C         46.41105        26.54814        -1.65928
C         47.83184        28.60237        -2.10215
C         46.62800        29.32623        -2.69238
C         47.86817        31.59993        -2.43258
C         46.62740        30.83157        -2.83855
C         47.72168        33.05428        -2.10105
C         46.52535        33.78075        -2.58512
C         47.85480        35.95642        -2.27383
C         46.66124        35.25599        -2.89740
C         47.86930        37.43650        -2.47116
C         46.59681        38.19763        -2.40304
C         47.89847        40.29210        -2.04263
C         46.65406        39.59017        -2.23758
C         47.90557        41.78778        -2.23533
C         46.60374        42.45434        -1.84799
C         47.91692        44.59946        -1.45075
C         46.63659        43.92325        -1.80182
C         47.90911        46.05314        -1.14795
C         46.61080        46.76572        -1.09803
C         48.00289        48.92061        -0.60070
C         46.70136        48.17249        -0.63428
C         48.01970        50.44639        -0.35682
C         46.69255        51.18800        -0.53940
C         47.87450        53.31690        -0.97959
C         46.65453        52.54694        -0.78066
C         47.89592        54.71231        -1.02262
C         46.62337        55.46935        -1.22308
C         46.50597        56.91025        -0.95191
C         48.07783        19.89248         3.56997
C         47.20345        19.05104         2.97506
C         48.21501        21.27957         3.10966
C         47.55681        21.64181         1.82944
C         48.94099        23.75510         1.65677
C         47.86066        22.85202         1.17360
C         49.47332        24.83352         0.78238
C         48.62519        25.29417        -0.32834
C         49.88268        27.46065        -0.34153
C         48.69781        26.71432        -0.73048
C         50.04777        28.76206        -0.79563
C         49.10553        29.38025        -1.76641
C         50.16346        31.69857        -1.28489
C         49.11359        30.88702        -1.96249
C         50.19815        33.07390        -1.36576
C         48.94597        33.81637        -1.68679
C         50.34836        35.95873        -2.00273
C         48.98812        35.27808        -1.93718
C         50.24791        37.39787        -1.46874
C         49.14087        38.16844        -2.14874
C         50.36611        40.27559        -1.62777
C         49.11052        39.62183        -1.90354
C         50.31855        41.71816        -1.18991
C         49.13491        42.48623        -1.69298
C         50.41132        44.59374        -1.50363
C         49.18851        43.86626        -1.66894
C         50.40724        46.05519        -1.69193
C         49.13697        46.84342        -1.47798
C         50.44387        48.95970        -1.20007
C         49.22475        48.27243        -1.14275
C         50.45816        50.39215        -1.10631
C         49.15654        51.08631        -1.13159
C         50.42471        53.29769        -1.22664
C         49.13342        52.59110        -1.25860
C         50.36028        54.71003        -1.12290
C         49.15159        55.38606        -1.08650
C         50.39380        21.56633         4.53300
C         49.36564        22.13761         3.64206
C         51.14690        23.85346         2.96699
C         49.75210        23.36656         2.86677
C         51.65569        24.87283         1.97280
C         50.59689        25.54953         1.12782
C         52.01857        27.56377         0.96401
C         50.87126        26.84717         0.54997
C         52.25456        28.88877         0.48383
C         51.28891        29.48654        -0.47364
C         52.32486        31.78269        -0.00544
C         51.32658        30.97116        -0.74724
C         52.48086        33.18994        -0.41030
C         51.39376        33.83278        -1.00238
C         52.62703        35.96346        -1.01903
C         51.47204        35.24549        -1.28121
C         52.72652        37.38388        -1.29762
C         51.57628        38.12034        -1.53327
C         52.83846        40.25931        -1.21014
C         51.56037        39.55874        -1.52774
C         52.85740        41.74758        -1.10920
C         51.60917        42.49233        -1.30887
C         52.86292        44.63961        -0.89858
C         51.62843        43.87813        -1.33617
C         52.96522        46.04385        -1.45253
C         51.70102        46.81048        -1.68389
C         52.89989        48.95892        -1.31572
C         51.70061        48.27375        -1.43331
C         52.90695        50.39332        -1.17666
C         51.65704        51.11445        -1.19534
C         52.91435        53.21632        -1.19959
C         51.64986        52.56323        -1.22009
C         51.62032        22.12098         4.64268
C         53.32156        23.90881         4.11143
C         52.02621        23.27799         3.85476
C         53.44404        25.32668         3.70876
C         52.65080        25.82374         2.58184
C         54.12636        27.78696         2.35783
C         52.92373        27.04152         1.98848
C         54.39938        29.04280         1.72415
C         53.39715        29.59866         0.86288
C         54.76189        31.74404         0.67182
C         53.44523        31.06294         0.65267
C         54.79741        33.19617         0.44284
C         53.70049        33.86828        -0.05920
C         55.08422        36.01580        -0.23129
C         53.75965        35.32599        -0.30829
C         55.29515        37.30212        -0.96395
C         54.06163        38.03503        -1.39923
C         55.40587        40.22344        -1.05913
C         54.13763        39.53974        -1.44007
C         55.44580        41.69155        -1.22314
C         54.14668        42.47193        -1.33056
C         55.36532        44.59831        -0.94981
C         54.17598        43.91717        -1.07219
C         55.37235        46.07026        -0.87950
C         54.19489        46.78132        -1.13941
C         55.39335        48.95306        -0.88723
C         54.22794        48.24158        -1.52094
C         55.36632        50.35601        -0.77282
C         54.12671        51.09397        -1.03993
C         54.09777        52.51254        -1.08170
C         55.56157        24.02433         5.12494
C         54.33744        23.33172         4.82999
C         55.80570        25.30687         4.72257
C         54.73598        26.07065         4.05646
C         56.31756        27.92467         3.50805
C         55.06120        27.27075         3.27130
C         56.55623        29.20954         2.90754
C         55.59554        29.75488         2.03805
C         56.98549        31.91315         1.92016
C         55.89578        31.05501         1.38680
C         57.10101        33.22407         1.52996
C         56.13345        33.82927         0.58341
C         57.48324        36.04967         0.62502
C         56.31686        35.24475         0.14976
C         57.60038        37.37503         0.19582
C         56.56279        38.05099        -0.63108
C         57.75989        40.26394        -0.35370
C         56.56123        39.54142        -0.70457
C         57.79301        41.71732        -0.42584
C         56.63078        42.44422        -0.79549
C         57.79276        44.56739        -0.42352
C         56.61978        43.86664        -0.78302
C         57.90098        46.06049        -0.64946
C         56.57786        46.77978        -0.65399
C         57.70084        48.89386        -0.02378
C         56.55595        48.20859        -0.53401
C         57.66553        50.29745         0.04814
C         56.53040        51.01437        -0.31312
C         58.31149        25.17769         5.14194
C         57.07772        26.04183         5.08627
C         58.60359        27.92578         4.42395
C         57.32072        27.30911         4.28949
C         58.77496        29.30756         4.00194
C         57.76117        29.94686         3.23988
C         59.07829        32.04371         3.24278
C         57.93452        31.30104         2.83262
C         59.20909        33.43820         2.89023
C         58.04365        34.15699         2.25157
C         59.55439        36.14924         1.97153
C         58.42154        35.43834         1.51205
C         59.89296        37.47341         1.39420
C         58.83395        38.12087         0.40751
C         60.03343        40.27874         0.61714
C         58.87811        39.57759         0.19947
C         60.26452        41.65625         0.02718
C         58.96915        42.42657        -0.09451
C         60.10224        44.55298         0.48456
C         58.96130        43.84850        -0.04411
C         60.02537        45.97774         0.72747
C         58.92044        46.73006         0.24330
C         59.85761        48.74866         1.22937
C         58.84361        48.12207         0.47417
C         59.54142        25.76621         5.13695
C         59.68664        27.16185         4.89069
C         59.93144        30.04458         4.35460
C         60.07393        31.37206         4.00082
C         60.30385        34.20778         3.27927
C         60.44389        35.54765         2.88640
C         60.73740        38.43257         2.08189
C         60.89260        39.71387         1.59414
C         61.35160        42.45081         0.68256
C         61.25993        43.79630         0.85987
C         61.02450        46.64791         1.47796
C         60.93442        48.01255         1.72307
O         28.89906        46.32176         0.03336
O         38.18985        26.78821        -4.11019
O         34.84827        51.70727         2.71053
O         55.78938        31.00998        -0.07683
O         46.02185        54.97021        -2.50711
O         30.24629        39.42442         1.83621
O         38.32026        38.04358        -2.71750
O         54.20755        38.75980        -2.66503
O         40.98447        44.96054         1.23494
O         38.10297        35.58109        -3.02167
O         44.75651        53.38147         0.63442
O         34.42836        20.30221         0.91038
O         34.40344        42.78487         2.17733
O         31.18891        48.22422         2.98264
O         32.77508        26.54292         0.82743
O         48.64403        24.37087        -1.49546
O         54.15144        36.14271         0.88693
O         34.67904        53.90481        -0.40117
O         26.42054        28.13486         2.75176
O         40.51758        36.41066        -0.43376
O         48.70850        24.39178         2.98380
O         43.29354        55.06664        -2.42968
O         40.62218        57.78664        -0.45509
O         51.94580        30.03467        -1.68743
O         27.22592        43.99366        -0.14338
O         44.22818        47.72928        -2.28434
O         37.62029        46.18761         2.07990
O         37.15703        42.77692         1.84512
O         36.86050        50.39254        -0.99261
O         35.96150        31.90192         0.47829
O         41.79251        30.22304        -4.22547
O         23.12257        45.27169         3.20537
O         48.87814        51.67292        -2.42493
O         56.37528        37.33083        -1.91857
O         45.93957        44.52947        -2.94590
O         48.03687        22.24052         4.22075
O         27.76640        23.29178        -0.39611
O         44.09670        17.94495        -2.10280
O         44.56057        35.81893        -4.02952
O         39.30365        16.78602        -3.45398
O         52.84316        40.90742         0.13300
O         28.70590        35.69579        -1.82372
O         39.79382        53.90744        -1.91195
O         47.91818        33.41331        -0.67834
O         47.99090        45.08915        -0.04220
O         60.03993        37.44319        -0.04747
O         44.60105        40.16098        -3.49132
O         34.76206        28.11293        -2.85146
O         33.02030        22.77782         1.15252
O         46.94662        29.96779        -3.96296
O         40.34262        27.94434        -4.33154
O         39.42809        22.54177        -4.10968
O         30.42385        27.85778        -1.58920
O         52.37038        31.67774         1.46938
O         22.72592        36.71511        -0.91925
O         32.48123        50.43540         3.25518
O         56.69922        34.17405        -0.76199
O         39.47482        42.33808        -2.01234
O         47.52633        48.21345         0.59564
O         40.02741        32.56134        -3.95074
O         32.11439        24.40197        -1.92910
O         36.13851        36.44918         0.96924
O         37.49633        34.32943         0.20361
O         52.52180        46.32731        -2.82349
O         26.35018        39.23910         2.38927
O         24.11357        33.92024        -1.11141
O         28.59362        33.05497        -1.79153
O         34.61411        38.64864         1.58173
O         43.41070        50.74584         1.04727
O         36.87653        17.82474        -3.25554
O         43.49146        23.64940        -3.79564
O         36.80610        20.36324        -3.37413
O         32.09487        46.45396        -0.02169
O         54.87525        42.09702        -2.53478
O         41.14708        19.81156        -3.83453
O         41.88879        26.96291        -1.25667
O         45.45851        49.50931         0.89281
O         48.96895        31.33945        -3.34952
O         32.74408        29.01243         0.94426
O         48.81784        37.84195        -3.53835
O         38.86672        24.86394        -1.06832
O         48.98226        28.62024        -2.99982
O         53.51365        26.23936         4.85342
O         23.55614        40.01222        -0.01541
O         49.58804        46.50285        -2.83739
O         26.44119        46.32480         2.85375
O         42.92697        15.75836        -2.15793
O         28.41475        49.35499        -0.30356
O         31.91321        38.73286        -1.26745
O         36.45814        48.66290         2.06013
O         31.82427        42.53787        -1.15582
H         31.06135        43.11846        -1.36715
O         35.88056        26.05100        -3.83940
H         35.50525        26.87684        -4.22084
O         35.74226        38.26520        -2.21226
H         36.35332        38.51932        -2.94289
O         40.11106        18.77453        -0.46756
H         40.91835        19.15312        -0.06016
O         50.11690        41.61393         0.28633
H         50.94851        41.21444         0.64332
O         52.43864        24.07407         1.00224
H         52.66668        24.65955         0.24812
O         49.85367        37.34137        -0.07175
H         50.57972        36.92364         0.43895
O         47.03638        35.22977        -4.31388
H         46.19789        35.32062        -4.82956
O         32.80523        36.89305         1.83935
H         33.41138        37.47768         2.35516
O         41.92591        22.05398        -4.64319
H         41.20109        21.50826        -5.02237
O         30.54179        45.52588         3.21838
H         31.28475        44.95069         3.49605
O         25.09953        31.30556         3.03576
H         25.72227        30.61131         3.34375
O         56.85936        26.49417         6.47666
H         57.66316        26.98609         6.74976
O         54.47616        48.25488        -2.96968
H         53.80877        47.64538        -3.37298
O         45.00229        31.52410        -4.47802
H         45.82421        31.68013        -4.98849
O         58.41704        46.19263        -2.02833
H         59.28418        45.73525        -2.06545
O         48.37894        50.62894         1.03435
H         47.81342        50.00753         1.55172
O         50.72956        35.97149        -3.39321
H         50.05452        36.50267        -3.88526
O         42.29748        48.20362         1.44313
H         41.65604        47.71545         2.00124
O         60.72921        41.42283        -1.35471
H         60.10625        40.79149        -1.77486
O         27.67423        28.50248        -1.33846
H         28.47168        28.21440        -1.84837
O         57.23023        34.65010         3.40117
H         57.84041        35.13303         3.99960
O         36.29243        56.14000        -0.73514
H         35.83997        55.54167        -1.37053
O         45.18493        28.18556        -4.22826
H         45.58906        28.90910        -4.76354
O         25.46978        36.16813        -1.81957
H         25.15224        35.37204        -2.30153
O         42.21438        49.11905        -2.08040
H         42.69232        48.51065        -2.69716
O         44.46211        31.03811        -0.92720
H         43.71209        30.69901        -0.39424
O         52.67425        44.85461         0.54003
H         52.46548        43.99090         0.95608
O         41.08699        56.06261        -2.30637
H         40.80155        55.33208        -2.89782
O         48.00478        41.97640        -3.68953
H         47.19479        41.60660        -4.10319
H         23.47927        23.37650         2.26829
H         21.40476        24.66533         2.67723
H         21.39654        27.12135         2.57279
H         21.41664        29.01060         2.61435
H         21.25624        31.36270         2.11139
H         21.03287        33.04064         1.14288
H         20.83415        35.33146         0.40774
H         20.99914        37.20981         1.27263
H         21.05771        39.47116         2.13328
H         21.31435        41.18616         3.01684
H         21.40569        43.55686         3.77803
H         21.00140        46.60647         2.51073
H         23.12654        49.49043         0.11959
H         20.98311        48.58945         0.95224
H         25.29915        22.56427         2.65323
H         24.67929        50.58054         0.53396
H         27.35078        21.31215         2.27544
H         26.67162        51.89833         0.85893
H         30.87287        18.92920         0.74514
H         28.80760        20.14894         1.24190
H         30.51499        54.13234         1.51853
H         28.46984        52.92604         0.97537
H         32.32335        17.95557        -0.14282
H         32.14890        55.07329         2.26803
H         34.26019        16.76108        -0.96247
H         34.11869        56.34110         1.66008
H         38.02947        14.56326        -1.22127
H         36.00146        15.77991        -0.86498
H         38.32166        57.57022         2.48299
H         36.04926        56.72750         2.19577
H         39.75290        13.62093        -1.50996
H         40.17905        58.06578         2.85057
H         43.41478        13.84933         0.57632
H         41.56514        12.60223        -0.39081
H         44.03481        58.81398         1.14292
H         42.31167        59.28050         2.80956
H         44.36149        15.33101         1.68257
H         45.30220        58.54100        -0.34600
H         45.64502        17.05354         2.83120
H         47.41714        57.52210        -0.89287
H         48.63791        19.56623         4.45609
H         47.11129        18.03097         3.36744
H         51.28631        55.30091        -1.11514
H         49.16489        56.48458        -1.08886
H         50.12008        20.71661         5.17329
H         52.96214        54.31212        -1.25689
H         52.33927        21.69524         5.35577
H         55.03927        53.07690        -1.04269
H         56.32782        23.46844         5.68335
H         54.25356        22.28999         5.16984
H         58.54186        50.85540         0.40416
H         56.54585        52.10812        -0.21659
H         58.21632        24.10116         5.34066
H         59.80698        49.82378         1.44531
H         60.44611        25.16222         5.29768
H         60.69239        27.59864         4.94176
H         60.72176        29.57052         4.95195
H         60.97673        31.90701         4.32333
H         61.11717        33.76254         3.86832
H         61.34046        36.09498         3.20707
H         61.24585        38.14201         3.01205
H         61.63508        40.36562         2.07691
H         62.29819        41.94323         0.91643
H         62.12418        44.32178         1.28902
H         61.87677        46.09353         1.89091
H         61.71386        48.51423         2.31269
