         429
 CSIRO Nanostructure Databank - Neutral Graphene Oxide Data Set
C          1.77011         2.02581         2.65724
C          1.73009         3.42538         2.61945
C          2.85557         1.33626         2.13287
C          2.76016         4.15925         2.00104
C          1.43677         6.36651         1.96719
C          1.32350         7.65159         1.60336
C          2.77508         5.67634         2.11362
C          2.45316         8.44516         0.98994
C          1.28257        10.66012         1.32366
C          1.29900        12.07666         1.45842
C          2.44592         9.93559         1.27110
C          2.46745        12.82118         1.30053
C          1.50419        14.93303         2.22768
C          1.59783        16.31236         2.48342
C          2.48902        14.25439         1.51348
C          2.74251        17.04861         2.13351
C          2.87682        18.43638         2.47727
C          3.93458         2.04514         1.54430
C          3.85845         3.47004         1.46826
C          5.07359         1.34780         1.04086
C          4.92335         4.17125         0.66480
C          3.84699         6.35802         1.28537
C          3.80111         7.76603         1.15214
C          5.00121         5.66449         0.89545
C          4.98105         8.46515         0.84629
C          3.72407        10.67673         1.27727
C          3.70982        12.13070         1.01874
C          5.02267         9.93053         1.02777
C          4.87929        12.78498         0.62201
C          3.62365        15.02083         0.98121
C          3.81766        16.40500         1.43952
C          4.85161        14.26082         0.44085
C          5.03220        17.07018         1.22771
C          4.02922        19.11752         2.19908
C          5.15637        18.45721         1.60062
C          6.22426         2.02144         0.55454
C          6.29049         3.50962         0.82438
C          7.26426         1.34592        -0.05029
C          7.31009         4.24338        -0.01322
C          6.15993         6.36340         0.49002
C          6.17590         7.78002         0.53268
C          7.32722         5.63298         0.01768
C          7.38351         8.52314         0.22412
C          6.18422        10.67750         0.52587
C          6.10484        12.06318         0.37665
C          7.38621         9.95021         0.20793
C          7.28787        12.76528        -0.16811
C          6.11811        15.00874         0.39446
C          6.18779        16.36579         0.71020
C          7.29628        14.31537        -0.12116
C          7.43595        17.07497         0.53318
C          6.36060        19.13309         1.40005
C          7.50716        18.48444         0.87123
C          8.36558         1.99630        -0.84851
C          8.32769         3.52351        -0.76724
C          9.74309         1.46849        -0.48625
C          9.63720         4.28362        -1.02110
C          8.54627         6.36725        -0.24643
C          8.57655         7.81300        -0.04764
C          9.70692         5.67200        -0.56579
C          9.79737         8.53080        -0.15423
C          8.59716        10.66251        -0.06237
C          8.59056        12.08824        -0.18470
C          9.82064         9.94014        -0.20022
C          9.79203        12.82571        -0.36565
C          8.59059        14.99836        -0.12467
C          8.59021        16.40163         0.10423
C          9.78519        14.26794        -0.35600
C          9.79182        17.19670        -0.34081
C          8.73002        19.17232         0.78493
C          9.90568        18.55539         0.30555
C         10.92515         2.06136        -0.86324
C         10.88629         3.48919        -1.37295
C         12.16447         1.40207        -0.46909
C         12.12896         4.31080        -1.61294
C         11.02677         6.30543        -0.37625
C         11.06726         7.77757        -0.10748
C         12.24133         5.65434        -0.94999
C         12.34731         8.51884        -0.34947
C         11.07175        10.66536        -0.38036
C         11.05351        12.12432        -0.44157
C         12.27157         9.98343        -0.50108
C         12.26274        12.83336        -0.59272
C         11.03895        14.98935        -0.42180
C         11.07279        16.40406        -0.30535
C         12.25748        14.27809        -0.60005
C         12.29914        17.08688        -0.26445
C         11.13156        19.20701         0.30755
C         12.34652        18.53718        -0.04226
C         13.40988         1.63163        -1.05170
C         13.43158         3.66988        -1.82393
C         14.71445         1.35353        -0.58431
C         14.64031         4.25795        -1.61894
C         13.50976         6.41817        -1.10417
C         13.55517         7.80116        -0.84210
C         14.69682         5.70372        -1.41292
C         14.77087         8.51569        -0.99152
C         13.57895        10.68701        -0.28702
C         13.53767        12.14704        -0.64514
C         14.79496         9.95759        -0.81710
C         14.72697        12.81597        -0.85608
C         13.48154        14.99483        -0.67968
C         13.50768        16.37382        -0.45835
C         14.71324        14.28364        -1.17952
C         14.81271        17.07011        -0.16317
C         13.54627        19.22877        -0.13452
C         14.80041        18.56495        -0.38343
C         15.88608         2.04146        -1.04416
C         15.86330         3.39495        -1.70254
C         17.13580         1.47020        -0.80272
C         17.16918         4.14803        -1.82495
C         15.91067         6.40515        -1.57292
C         15.95738         7.80819        -1.36371
C         17.13125         5.65165        -1.95450
C         17.22602         8.50860        -1.38721
C         15.97105        10.66992        -0.94966
C         15.98902        12.11329        -0.93523
C         17.27961         9.93650        -0.88026
C         17.20221        12.81800        -1.06730
C         16.01226        14.97921        -0.86458
C         16.02885        16.36728        -0.70339
C         17.22457        14.26033        -0.98217
C         17.24976        17.07296        -0.74564
C         15.96604        19.24627        -0.59669
C         17.22732        18.55275        -1.04780
C         18.39302         2.13481        -1.01476
C         18.42140         3.50889        -1.38101
C         19.61095         1.45451        -0.78560
C         19.65679         4.23580        -1.37646
C         18.44133         6.38341        -1.87111
C         18.41325         7.82695        -1.55211
C         19.67768         5.62293        -1.60353
C         19.68383         8.50830        -1.39821
C         18.44952        10.73312        -1.39526
C         18.45741        12.12140        -1.29168
C         19.68260         9.97938        -1.62402
C         19.69173        12.88571        -1.36553
C         18.46109        14.95669        -0.88814
C         18.45940        16.36574        -0.77325
C         19.71468        14.24509        -1.07813
C         19.72609        17.07552        -0.37517
C         18.52154        19.25038        -0.73539
C         19.71095        18.56784        -0.62028
C         20.86479         2.11552        -0.87845
C         20.88875         3.52429        -1.12869
C         22.08623         1.41479        -0.69310
C         22.13830         4.22339        -1.09066
C         20.96748         6.37000        -1.74944
C         20.86568         7.82120        -1.33015
C         22.17035         5.63972        -1.21624
C         22.09828         8.56085        -0.98433
C         20.96694        10.72262        -1.79106
C         20.96200        12.24903        -1.89982
C         22.17426        10.04414        -1.21951
C         22.23177        12.88973        -1.38976
C         20.97051        14.98970        -1.05911
C         20.98399        16.37569        -0.82793
C         22.22395        14.28719        -1.19477
C         22.20105        17.10178        -0.79125
C         20.96247        19.24245        -0.59672
C         22.19334        18.54553        -0.63817
C         23.33540         2.08014        -0.70526
C         23.35136         3.51132        -0.85945
C         24.56590         1.39299        -0.55663
C         24.59276         4.21112        -0.83040
C         23.37706         6.33340        -1.04400
C         23.38294         7.80644        -0.84185
C         24.59031         5.62715        -0.92063
C         24.66515         8.57829        -0.90072
C         23.48035        10.73863        -1.30134
C         23.45686        12.16887        -1.34865
C         24.67822        10.03759        -1.16637
C         24.70027        12.86304        -1.25771
C         23.46133        14.99645        -1.06546
C         23.44546        16.41786        -0.90662
C         24.70452        14.29790        -1.13772
C         24.67015        17.14153        -0.82311
C         23.41837        19.24310        -0.59773
C         24.66524        18.56999        -0.66802
C         25.81108         2.07671        -0.54069
C         25.82802         3.50399        -0.67488
C         27.04156         1.39068        -0.36978
C         27.06806         4.22684        -0.55516
C         25.87573         6.33779        -1.02140
C         25.92681         7.82329        -1.15808
C         27.09412         5.62585        -0.65977
C         27.19529         8.55301        -0.90605
C         25.93746        10.71528        -1.23597
C         25.91464        12.12545        -1.30488
C         27.19452         9.97581        -1.07527
C         27.17649        12.87188        -1.41434
C         25.92943        15.01195        -1.01647
C         25.91410        16.44368        -0.85632
C         27.18613        14.32257        -1.11099
C         27.11918        17.16450        -0.73227
C         25.89542        19.26850        -0.58669
C         27.13169        18.58621        -0.61743
C         28.27717         2.08336        -0.28479
C         28.29439         3.51401        -0.34223
C         29.50355         1.38634        -0.13847
C         29.53043         4.24327        -0.22175
C         28.25871         6.40774        -0.13202
C         28.35571         7.84932        -0.59874
C         29.54466         5.64033        -0.19541
C         29.61116         8.53013        -0.52949
C         28.42365        10.64744        -0.97927
C         28.46169        12.09467        -1.24372
C         29.64871         9.94732        -0.72981
C         29.65403        12.85585        -0.79767
C         28.39239        14.99587        -0.97718
C         28.41106        16.43008        -0.53485
C         29.66819        14.31636        -1.04825
C         29.59564        17.20038        -1.06920
C         28.38793        19.28426        -0.51774
C         29.61972        18.64039        -0.70601
C         30.74209         2.06767        -0.06038
C         30.76954         3.50182        -0.10127
C         31.96199         1.35077         0.06692
C         32.00701         4.18567        -0.03585
C         30.78164         6.39177         0.22524
C         30.82611         7.82923        -0.26510
C         32.05438         5.62596        -0.03403
C         32.04536         8.50672        -0.29210
C         30.90823        10.62616        -0.69862
C         30.94473        12.10521        -0.65101
C         32.11112         9.90965        -0.57107
C         32.18214        12.81685        -0.92433
C         30.86807        14.97789        -1.14307
C         30.88498        16.45374        -1.26015
C         32.15377        14.23263        -1.45369
C         32.14720        17.16249        -1.00933
C         30.87289        19.26740        -0.58946
C         32.10631        18.55397        -0.67391
C         33.19404         2.01627         0.13909
C         33.22206         3.44920         0.06777
C         34.43252         1.30281         0.28464
C         34.46717         4.13620         0.14773
C         33.26194         6.29126        -0.06556
C         33.29493         7.77484         0.00606
C         34.50503         5.56716         0.00681
C         34.60228         8.49497        -0.14003
C         33.39482        10.59052        -0.72324
C         33.38390        12.01656        -1.10914
C         34.60513         9.93116        -0.54204
C         34.72531        12.78884        -1.04282
C         33.39110        15.01135        -1.02336
C         33.35168        16.39808        -0.89884
C         34.62973        14.24706        -0.58901
C         34.61189        17.18441        -0.75592
C         33.30044        19.22507        -0.27776
C         34.54288        18.57587        -0.24351
C         35.63328         1.96670         0.39533
C         35.66365         3.40196         0.34409
C         36.94391         1.21001         0.53188
C         36.89458         4.10928         0.52419
C         35.73385         6.24634         0.02603
C         35.82953         7.66540        -0.50816
C         36.91384         5.53316         0.35714
C         37.11901         8.41441        -0.11456
C         35.87181        10.64070        -0.52597
C         35.91811        12.01700        -0.64917
C         37.12452         9.90400        -0.15179
C         37.18427        12.75045        -0.39726
C         35.94156        14.98352        -0.84094
C         35.92947        16.48050        -0.73368
C         37.19999        14.24733        -0.53503
C         37.10502        17.15020        -0.14344
C         35.72168        19.21586         0.15950
C         37.00412        18.57976         0.17125
C         37.93067         1.98549         1.42401
C         38.05451         3.42166         0.97187
C         39.28436         1.32777         1.55163
C         39.26650         4.11224         1.11893
C         38.13955         6.23169         0.55628
C         38.09471         7.70700         0.79000
C         39.28504         5.48577         0.75996
C         39.10878         8.50522         1.58200
C         38.15279        10.62838         0.65471
C         38.28296        12.07538         0.36996
C         39.07665        10.00201         1.45155
C         39.16120        12.91042         1.22482
C         38.46659        14.97061        -0.06440
C         38.24863        16.45148         0.19883
C         39.13703        14.28550         1.12258
C         39.34429        17.16689         0.78943
C         38.15478        19.28871         0.46942
C         39.50428        18.61329         0.40308
C         40.40752         2.04142         1.79266
C         40.41109         3.50082         1.77714
C         41.32631         4.21392         2.55020
C         40.72987         6.56432         2.02133
C         40.31453         7.91949         2.26359
C         41.29977         5.61294         2.85470
C         41.01327         8.73699         3.15436
C         39.99635        10.80006         2.26703
C         40.00575        12.21785         2.17259
C         40.84426        10.12379         3.17845
C         40.95433        13.02601         2.90247
C         39.82146        15.13252         2.17928
C         40.19449        16.53393         1.71486
C         40.92864        14.37961         2.86067
C         41.16922        17.29248         2.36992
C         40.52717        19.33841         1.21941
C         41.31703        18.68805         2.11795
O         16.55639         3.45824        -2.98200
O         34.04740         8.27080         1.18727
O         11.93128         8.12092         1.03071
O         21.88320         9.50922         0.11834
O         30.05282        16.92921        -2.41515
O          8.60811         4.13067        -2.06407
O          3.83060        14.78796        -0.45871
O         11.23755         3.94716        -2.72493
O         37.73146         9.09107        -1.25045
O         17.78780         6.10942        -3.18385
O         13.38228         2.35690        -2.26838
O         35.44570        17.10698        -1.97459
O         36.79252        14.54694        -1.92256
O         24.08840         8.18859         0.39384
O         28.00116        12.48443        -2.57438
O         38.38432        12.24454        -1.10006
O         34.16618        12.40296        -2.30344
O         40.51115         6.15039         0.68978
O         11.89682         5.50018         0.49366
O         37.84461         8.00632         2.20952
O          7.01661        13.56458        -1.35964
O         20.36321        10.14588        -2.98445
O          4.62274        10.30699         2.40065
O         25.96093         7.05463        -2.39783
O         30.11796        12.56787         0.55790
O         20.96579        12.57568        -3.32561
H         20.52642        11.81869        -3.78402
O         35.81158         7.53971        -1.95021
H         36.50434         8.15157        -2.30144
O         36.73353        -0.08509         1.08729
H         36.57422         0.04872         2.04697
O         19.75913        16.96367         1.09651
H         19.69288        16.01157         1.32330
O         13.74893        10.64823         1.18875
H         13.33129         9.81898         1.51455
O         17.54546         9.81458         0.57490
H         16.67990         9.73130         1.03125
O          8.11818         1.60697        -2.22659
H          8.37655         2.37656        -2.78803
O         34.56691        14.17709         0.87953
H         33.65754        13.91266         1.13953
O         14.96445        16.92013         1.29868
H         14.23617        17.42560         1.71913
O         39.42901        14.89649        -1.15075
H         39.34270        13.99585        -1.54525
O          9.54082        17.48074        -1.76670
H          9.36589        16.62381        -2.21131
O         30.68508         6.48647         1.69175
H         29.76690         6.79765         1.89266
O         38.78961        15.37641         3.21384
H         38.60238        14.51608         3.64662
O         14.62068        14.36531        -2.65435
H         13.81591        13.87408        -2.92549
O         27.96774         6.56853         1.34573
H         27.77586         5.67081         1.69649
O         28.64763        16.39825         0.92278
H         27.89278        15.93037         1.33882
O          4.56376         4.00577        -0.73848
H          3.64318         4.31665        -0.86133
O         32.17304        14.14438        -2.92089
H         32.04562        15.04840        -3.28063
O          6.67115         3.67323         2.21693
H          7.49372         3.16684         2.37833
O          2.21022         8.37633        -0.46414
H          2.20470         7.42983        -0.72074
O         21.22414         6.45723        -3.20797
H         20.36676         6.64341        -3.65086
O         17.15149        18.61249        -2.52877
H         16.34819        18.11981        -2.80318
O         39.97007        18.65152        -0.99683
H         39.39692        18.04170        -1.51075
O         37.32715         1.96886         2.75690
H         37.91898         2.46761         3.35855
O          3.17403         5.91774         3.50366
H          3.33064         6.88017         3.60941
H          0.94558         1.47322         3.12894
H          0.88500         3.95030         3.08556
H          2.89661         0.23903         2.18840
H          0.54302         5.83729         2.33332
H          0.32549         8.11739         1.59549
H          0.30818        10.15204         1.30209
H          0.34465        12.59251         1.63077
H          0.63290        14.38486         2.61319
H          0.78510        16.81390         3.02768
H          2.03462        18.94172         2.97171
H          5.04193         0.24801         0.99925
H          4.12372        20.18105         2.46261
H          7.17810         0.25367        -0.16895
H          6.43733        20.19301         1.68529
H          9.79105         0.46401        -0.03720
H          8.78566        20.20577         1.16019
H         12.09275         0.67386         0.35340
H         11.18553        20.25749         0.63307
H         14.85165         0.56934         0.17635
H         13.54080        20.32613        -0.04436
H         17.17161         0.45105        -0.38831
H         15.94176        20.34597        -0.66747
H         19.58770         0.38471        -0.53014
H         18.54113        20.34796        -0.83499
H         22.05789         0.32623        -0.53553
H         20.97497        20.34341        -0.61867
H         24.55764         0.29888        -0.44176
H         23.40684        20.33822        -0.49110
H         27.03796         0.29351        -0.29108
H         25.88346        20.36388        -0.48564
H         29.49411         0.28657        -0.10081
H         28.37122        20.36674        -0.31942
H         31.93391         0.25183         0.11096
H         30.91163        20.33335        -0.31725
H         34.41625         0.20377         0.33037
H         33.23533        20.27781         0.03740
H         37.39117         1.07601        -0.48961
H         35.66915        20.27348         0.46134
H         39.31047         0.22808         1.58293
H         38.09591        20.36050         0.70860
H         41.35293         1.52318         2.01762
H         42.01914         3.60643         3.15646
H         41.70019         5.92352         3.83171
H         41.80693         8.29071         3.77230
H         41.47130        10.70032         3.86998
H         41.74856        12.53415         3.48052
H         41.67864        14.93999         3.43600
H         41.80403        16.84133         3.14426
H         40.64514        20.41902         1.05186
H         42.07139        19.24429         2.69335
