         210
 CSIRO Nanostructure Databank - Neutral Graphene Oxide Data Set
C         30.39843        31.81488         0.93499
C         30.47424        33.03437         0.64442
C         30.49363        36.09215        -0.00044
C         30.51964        37.32136        -0.22585
C         30.56877        40.38233        -0.91681
C         30.54040        41.57821        -1.28386
C         32.81318        29.05375         1.44340
C         31.69034        29.61444         1.38506
C         32.79954        31.67873         0.82905
C         31.53872        30.98716         1.06845
C         32.81391        33.08423         0.51198
C         31.59979        33.84444         0.39395
C         32.84642        35.92121        -0.14925
C         31.62257        35.22906         0.08245
C         32.87668        37.34586        -0.43257
C         31.65997        38.12316        -0.47533
C         32.91157        40.15005        -1.10786
C         31.68933        39.49403        -0.82039
C         32.92526        41.55156        -1.61578
C         31.65345        42.38583        -1.61079
C         33.04266        44.26526        -1.84568
C         31.88880        43.72388        -1.89028
C         35.51084        27.45246         1.46248
C         35.33175        28.84069         1.25048
C         34.10795        29.55970         1.22600
C         35.28791        31.64371         0.65475
C         34.05722        30.96740         0.89780
C         35.28817        33.06363         0.40987
C         34.05386        33.78357         0.32837
C         35.31587        35.85960        -0.10092
C         34.07527        35.17720        -0.00567
C         35.37698        37.22932        -0.74667
C         34.10082        38.02737        -0.63764
C         35.40211        40.11429        -0.87052
C         34.14346        39.43125        -0.90835
C         35.52152        41.55429        -1.20506
C         34.29031        42.29939        -1.63742
C         35.43658        44.49790        -1.04392
C         34.30887        43.78557        -1.54302
C         35.53921        45.90298        -0.86413
C         37.84910        27.34342         1.02074
C         36.57918        26.80483         1.34766
C         37.79231        28.74950         0.85934
C         36.57940        29.48856         0.96537
C         37.75015        31.61226         0.58915
C         36.54919        30.93006         0.72220
C         37.79698        33.03476         0.12021
C         36.50934        33.78246         0.33753
C         37.74157        35.97621         0.58992
C         36.51283        35.18095         0.19458
C         37.89917        37.26954        -0.24860
C         36.60006        38.02624        -0.37434
C         37.75459        40.16379         0.04901
C         36.58427        39.40241        -0.47126
C         37.76967        41.64998         0.04832
C         36.70772        42.35829        -0.73585
C         37.74764        44.53945        -0.08729
C         36.63435        43.83978        -0.60317
C         37.79020        45.98185        -0.03411
C         36.54343        46.52172        -0.44514
C         40.21379        24.52059         0.39557
C         39.20851        25.23162         0.67545
C         40.34244        27.27758         0.63658
C         39.06884        26.61941         0.79689
C         40.36319        28.73707         0.59732
C         39.03557        29.43287         0.32263
C         40.31372        31.64186         0.67772
C         39.03287        30.88611         0.73369
C         40.27868        33.11130         0.53479
C         39.05656        33.79123         0.47710
C         40.25148        35.90513         0.64080
C         39.04425        35.20195         0.54490
C         40.20943        37.37653         0.93270
C         39.05060        38.09091         0.28501
C         40.23365        40.22624         0.59494
C         39.03548        39.46259         0.29555
C         40.22434        41.67560         0.57110
C         39.04377        42.36257         0.28816
C         40.24312        44.59801         0.64630
C         38.93811        43.82153         0.43038
C         40.26571        46.03957         0.32441
C         38.99108        46.69372         0.17634
C         40.20298        48.82709         0.03505
C         39.19808        48.09620         0.01861
C         42.75751        24.52877        -0.17023
C         41.49249        25.08319         0.21658
C         42.83270        27.22853         0.43532
C         41.52727        26.51391         0.41985
C         42.85211        28.75416         0.53387
C         41.54700        29.46141         0.52243
C         42.75242        31.64398         0.30713
C         41.58191        30.91677         0.42934
C         42.74578        33.10181         0.34084
C         41.50747        33.81532         0.50062
C         42.73986        35.96496         0.52633
C         41.49910        35.23682         0.55257
C         42.74628        37.39435         0.70913
C         41.51014        38.11162         0.78021
C         42.68185        40.27098         1.09844
C         41.45195        39.51954         0.79472
C         42.70969        41.72740         0.90020
C         41.47953        42.42004         0.72289
C         42.72860        44.55380         0.69245
C         41.50294        43.83223         0.64844
C         42.70716        45.99851         0.55394
C         41.49650        46.71102         0.23495
C         42.77289        48.84084         0.38807
C         41.55481        48.22296        -0.27102
C         43.78542        25.21631        -0.34688
C         45.15719        27.34862        -0.49413
C         44.04984        26.59762        -0.15807
C         45.18971        28.81954        -0.36729
C         44.05482        29.48088         0.07951
C         45.21839        31.68696        -0.27776
C         44.09994        30.95306         0.41103
C         45.11896        33.13968        -0.36928
C         43.92241        33.83978         0.14322
C         45.19446        36.00656         0.19622
C         43.95004        35.27120         0.27020
C         45.21507        37.40454         0.48983
C         43.98886        38.07783         0.74512
C         45.25375        40.27584         0.97649
C         44.00837        39.50166         1.10869
C         45.19006        41.66916         1.06786
C         43.94557        42.41180         0.97711
C         45.19379        44.57593         1.00977
C         43.95621        43.84810         0.88971
C         45.14266        46.01729         0.97122
C         43.93624        46.69888         0.74832
C         43.75241        48.10711         0.59435
C         47.39302        27.52317        -1.34857
C         46.39189        26.86466        -1.02063
C         47.55291        28.94146        -1.22235
C         46.38867        29.57451        -0.73703
C         47.61049        31.77088        -0.90793
C         46.38092        31.02571        -0.66651
C         47.66509        33.16411        -0.65614
C         46.41902        33.93592        -0.52599
C         47.65309        36.01155         0.07176
C         46.43207        35.34322        -0.06954
C         47.69764        37.42160         0.34910
C         46.46759        38.12803         0.53866
C         47.72826        40.23897         0.72457
C         46.48847        39.54334         0.78077
C         47.77175        41.67356         1.08805
C         46.44558        42.41917         1.26542
C         47.68615        44.56603         1.22261
C         46.43709        43.89047         1.15548
C         47.51698        45.97597         1.22072
C         46.42995        46.58795         1.13932
C         49.98780        29.16009        -1.89460
C         48.74759        29.66609        -1.48407
C         50.07790        31.78832        -1.30214
C         48.82627        31.08284        -1.23052
C         50.11208        33.17233        -0.89360
C         48.90510        33.83784        -0.55511
C         50.22338        35.98422         0.00106
C         48.90901        35.22208        -0.02023
C         50.20546        37.46808         0.09592
C         48.94183        38.15099         0.31719
C         50.17356        40.34953         0.04067
C         48.92656        39.56407         0.43052
C         50.18644        41.83075         0.41756
C         48.99604        42.46685         0.82131
C         50.19551        44.46459         0.87410
C         48.93386        43.87957         1.06089
C         51.10346        29.73400        -2.02580
C         52.45104        31.92223        -1.70766
C         51.29520        31.09174        -1.71625
C         52.43720        33.11334        -1.33319
C         51.36279        33.92844        -0.88972
C         52.49717        36.17790        -0.60862
C         51.42050        35.27088        -0.54018
C         52.54668        37.38128        -0.25503
C         51.40798        38.18262         0.05172
C         52.58419        40.46575        -0.04712
C         51.45969        39.60227         0.51689
C         52.52934        41.70512         0.00443
C         51.41129        42.57047         0.25280
C         51.29548        43.94219         0.53902
O         33.70505        41.73387        -2.84071
O         36.65608        41.86729        -2.11785
O         47.21780        41.93215         2.41743
O         39.35489        44.27942         1.76559
O         43.29395        39.81953         2.35268
O         39.71995        31.18976         1.98512
O         43.08834        27.90381         1.71381
O         49.70634        35.33625         1.21627
O         37.30482        40.94117         1.24912
O         45.52910        33.70130        -1.66873
O         38.27029        36.86231        -1.60056
H         37.43577        36.61121        -2.06947
O         38.89210        29.44696        -1.13341
H         38.81737        28.51989        -1.44405
O         37.89985        32.90509        -1.35803
H         37.11624        32.40395        -1.67110
O         39.91885        37.44443         2.40089
H         40.00721        38.38360         2.67697
O         51.52113        39.62169         1.92784
H         52.22083        39.00750         2.23208
O         37.46412        36.34615         1.96172
H         38.29608        36.71855         2.35772
O         41.74992        48.18704        -1.65787
H         41.79017        49.10184        -2.00432
O         50.17357        40.29509        -1.40854
H         51.01783        40.68614        -1.72490
O         35.53384        36.90924        -2.20322
H         35.41392        37.74874        -2.69964
O         44.42808        31.01078         1.84904
H         43.83302        30.38682         2.31966
