         271
 CSIRO Nanostructure Databank - Neutral Graphene Oxide Data Set
C        -11.06309         0.83930         0.34472
C         -9.72650         1.55288         0.43153
C         -8.65671         0.62698        -0.13354
C         -7.37247         1.15163        -0.70131
C         -6.09741         0.34433        -0.50081
C         -4.81463         1.11169        -0.39221
C         -3.62684         0.60629         0.38541
C         -2.28886         1.20486         0.09741
C         -1.04274         0.35064         0.30420
C          0.24229         1.16233         0.42219
C          1.40197         0.51357         0.90622
C          2.72236         1.18475         0.76696
C          3.81490         0.70388         1.70356
C          5.19241         1.31178         1.41609
C          6.46053         0.71880         2.11341
C          7.67653         1.52416         1.56169
C          8.84756         0.82209         0.95264
C         10.05468         1.61986         0.42802
C         10.35464         1.28234        -1.03395
C         -9.65519         2.92912        -0.15235
C         -8.45868         3.48001        -0.60836
C         -7.27186         2.64147        -1.08425
C         -5.92599         3.31262        -0.86366
C         -4.78019         2.57493        -0.66842
C         -3.47172         3.11639        -1.10155
C         -2.15886         2.32414        -0.93281
C         -0.96271         3.21301        -0.53145
C          0.29371         2.51345        -0.06981
C          1.46045         3.26157         0.03083
C          2.75533         2.62153         0.31507
C          4.00915         3.51832         0.42422
C          5.19647         2.76984         1.06677
C          6.27889         3.53928         1.83419
C          7.60491         2.88928         1.49110
C          8.70132         3.71474         0.95326
C          9.87526         3.10004         0.53014
C         -8.38261         4.86222        -0.82245
C         -7.13230         5.51893        -1.19422
C         -5.85998         4.74486        -1.09820
C         -4.64719         5.39484        -1.19956
C         -3.42779         4.59655        -1.41862
C         -2.11196         5.28464        -1.66420
C         -0.88010         4.60329        -1.11232
C          0.45970         5.28986        -1.22902
C          1.57012         4.66676        -0.44502
C          2.55835         5.57425         0.24684
C          3.71789         4.91460         0.98740
C          4.85398         5.68753         1.62655
C          6.21840         5.05067         1.69969
C          7.41739         5.85836         1.28774
C          8.59690         5.11864         0.85332
C         -7.10571         7.01863        -1.27213
C         -5.79595         7.71768        -1.04080
C         -4.55162         6.86761        -1.02573
C         -3.23503         7.56298        -1.23718
C         -2.08116         6.77665        -1.77147
C         -0.76337         7.50857        -1.87768
C          0.50317         6.75537        -1.62552
C          1.82400         7.49899        -1.44758
C          2.60412         6.98618        -0.22753
C          3.80563         7.87200        -0.16848
C          4.95988         7.19105         1.89799
C          6.08250         7.94564         1.23318
C          7.22688         7.28080         0.92162
C         -5.65840         9.15576        -1.37748
C         -4.46442         9.77691        -1.47843
C         -3.17302         9.06751        -1.34326
C         -1.91341         9.70007        -1.82795
C         -0.76435         8.99580        -1.93048
C          0.57813         9.62460        -2.27469
C          1.67989         9.02881        -1.39941
C          2.57201         9.82436        -0.77182
C          3.51389         9.29299         0.31075
C          4.81824        10.01934         0.54515
C          5.93923         9.39103         0.95840
C        -11.16736        -0.44589         0.72019
C         -9.96132        -1.18797         1.26196
C         -8.73356        -0.76767         0.41967
C         -7.50565        -1.58031         0.54206
C         -6.13584        -1.10721         0.07234
C         -5.09679        -1.37499         1.16259
C         -3.78417        -0.66360         1.18174
C         -2.52064        -1.33318         1.72585
C         -1.19540        -0.68861         1.41718
C          0.07907        -1.45678         1.68674
C          1.37567        -0.82091         1.40240
C          2.58051        -1.58451         1.62097
C          3.84309        -0.81054         1.83330
C          5.16579        -1.50849         1.89130
C          6.55863        -0.83116         1.85160
C          7.24440        -1.16118         0.53528
C          8.58284        -0.51673         0.30890
C          9.47930        -1.05238        -0.82787
C         10.12209         0.08734        -1.58298
C        -10.04296        -2.70438         1.18925
C         -8.90850        -3.45410         1.28086
C         -7.61237        -2.70092         1.59329
C         -6.36145        -3.58769         1.56997
C         -5.07576        -2.79336         1.79587
C         -3.77007        -3.46015         1.23929
C         -2.53893        -2.89583         2.04392
C         -1.27607        -3.60964         1.51646
C          0.03457        -2.95334         1.84339
C          1.31122        -3.74522         1.78884
C          2.58303        -2.98098         1.74311
C          3.85243        -3.76847         1.74571
C          5.15196        -2.99644         1.63758
C          6.26947        -3.52731         0.77654
C          7.00221        -2.50939        -0.05653
C          7.78327        -2.99379        -1.28509
C          8.75914        -1.98180        -1.75139
C         -8.86050        -4.82638         0.78685
C         -7.70673        -5.50775         0.54407
C         -6.41500        -4.97911         1.04882
C         -5.12754        -5.69634         0.78596
C         -3.82330        -4.99900         1.03710
C         -2.62839        -5.83984         1.49709
C         -1.30985        -5.07930         1.22464
C         -0.03367        -5.85438         1.06297
C          1.25551        -5.23367         1.49913
C          2.52565        -5.95506         1.13346
C          3.85326        -5.21309         1.25318
C          5.08337        -5.80471         0.59309
C          6.30838        -4.96199         0.33809
C          7.25122        -5.37006        -0.74766
C          8.39799        -4.41701        -1.02661
C         -7.69709        -6.81013        -0.23237
C         -6.50272        -7.71828         0.07742
C         -5.24286        -7.19230         0.71552
C         -3.94940        -7.92730         0.50771
C         -2.64294        -7.23854         0.85311
C         -1.38427        -7.74388         0.19383
C         -0.09175        -7.02809         0.37924
C          1.09598        -7.90999         0.03508
C          2.43488        -7.22590         0.34729
C          3.57252        -7.58404        -0.55748
C          4.88587        -6.90803        -0.41822
C          6.13506        -7.60711        -0.94761
C          7.17038        -6.57559        -1.34411
C         -6.38229        -8.89418        -0.82091
C         -5.20024        -9.44485        -1.15625
C         -3.92172        -9.06124        -0.50926
C         -2.67182        -9.26449        -1.27306
C         -1.50484        -8.64143        -0.97818
C         -0.37537        -8.61676        -2.00000
C          1.00603        -8.44991        -1.39322
C          2.10962        -8.95931        -1.97549
C          3.44607        -8.93995        -1.25046
C          4.61000        -9.18159        -2.18129
C          5.79099        -8.55958        -2.07306
O          6.23557        -1.32361        -0.50684
O         -2.89370         8.36635        -0.07307
O         -5.79775        -1.99831        -1.00958
H         -6.49971        -1.88878        -1.68980
O          1.54839         4.60404        -1.92134
O          2.60776         7.19608        -2.61261
O          7.08562        -4.49664         1.50306
O         -1.24615         4.36094         0.31197
O         -2.55799        -3.15026         3.42394
H         -3.38385        -2.77265         3.81324
O         -4.27479        -5.27501        -0.33692
O          3.43305         1.23376         2.99203
H          6.25788         1.75940         3.78313
O          0.03086        -2.10078         3.00339
O         -9.39428         1.78200         1.83262
H         -9.61298         0.95008         2.34435
O          4.80751        -6.05801         1.97602
O         -7.59558        -2.11321         2.87480
O         -2.23208         5.93796        -2.96101
O         -3.94058        -9.30750         0.93246
O         -3.60173         3.58732        -2.48576
O          4.45831        -1.18037         3.11664
O         -6.24261        -7.86900         1.51347
O          5.95459         3.34558         3.24033
H          6.38457         4.07948         3.73775
O         -3.03138         1.64917         1.24918
O          5.60423         1.74793         0.09211
O         10.55067        -1.84640        -0.23767
H         10.19090        -2.74167         0.00468
O         -1.79954        -8.20452         1.53324
O          3.80750         5.02688         2.41624
O         -5.04221        -2.62521         3.21220
H         -5.98104        -2.36153         3.46227
O         -5.15374         0.38181        -1.61892
O         -1.87973        -0.41425         2.65927
O          4.25297         7.70581         2.74999
O         -8.41485         0.57866        -1.55908
O          4.41304         3.80568        -0.93063
H          4.49944         2.93898        -1.39084
O         -8.40019        -1.77554        -0.59367
O          1.03795        -9.11393         0.76499
O          0.52584        11.03734        -2.15442
H          0.27584        11.26453        -1.23526
O          1.28173        -4.76058         2.86798
O         -1.37092        -4.07898         0.14178
O         -5.19234         7.31350         0.22387
O          3.94547        -6.49137        -1.47149
O         -7.38604         2.64550        -2.53476
O          4.80017        -3.67956         2.85632
O          7.30988        -1.44326         2.89139
H          7.01691        -1.03645         3.73827
O          7.05017         5.64546         2.74529
H          3.86633         0.67280         3.67812
O          0.02306         6.94669        -2.98124
O          9.27011        -0.41482         1.59076
O         -0.42342        -9.76356        -2.84129
H         -0.23192       -10.55039        -2.29004
O          6.37292         0.80666         3.53202
O         -7.23524         6.28985        -2.50151
H         -7.25630         3.56159        -2.85958
O         -2.76635        -6.01355         2.91113
H         -2.23590        -6.79807         3.17533
O          1.87624         6.65986         0.97037
O         11.22317         1.25134         1.18850
H         11.13861         0.28813         1.38134
O         -4.86085        -0.37183         2.16429
O         -6.47932        -4.68146         2.49976
O          2.66728        -7.26039         1.77468
O          6.81292        -3.22526        -2.33288
H          6.32615        -2.38279        -2.46794
O         -9.78495        -0.74734         2.62928
H         -8.99202        -1.24665         3.00317
O          3.05919         1.49283        -0.60598
O          3.43354        -9.95982        -0.23111
H          2.58475        -9.83883         0.29340
O         -0.88575        -0.46605        -0.88863
H         -1.03492         0.10869        -1.67879
O          9.30221        -4.35086         0.06699
H          8.77970        -4.48178         0.90284
O          2.68894         9.35457         1.48333
H          3.15743         8.93509         2.24567
O         -1.82341         1.73655        -2.20581
H         -2.32098         2.23329        -2.90154
O          6.71099        -8.37943         0.13268
H          6.08187        -9.09543         0.36694
O          4.77658         7.59495        -0.87412
H          3.55655         7.38007        -2.42567
O         -8.90338        -7.54258        -0.00907
H         -8.89094        -7.86037         0.91805
O         -3.56269        -2.90003        -0.06669
H         -3.89108        -3.53794        -0.74379
H         10.43832        -0.11219        -2.61896
H         10.87132         2.05610        -1.62254
H         10.71523         3.72757         0.19613
H          9.42927         5.67755         0.40213
H          8.06417         7.80707         0.43853
H          6.86118         9.98533         1.06638
H          4.84653        11.10685         0.37737
H          2.47526        10.91925        -0.86552
H          0.81453         9.38325        -3.34459
H         -1.89827        10.79272        -1.96421
H         -4.43011        10.84083        -1.75791
H         -6.58438         9.72134        -1.56115
H         -8.02393         7.58086        -0.98093
H         -9.27536         5.48727        -0.66526
H        -10.49892         3.61169         0.04350
H        -11.94177         1.39073        -0.02362
H        -12.13637        -0.96585         0.66809
H        -10.99894        -3.17423         0.90737
H         -9.80964        -5.27449         0.45172
H         -7.66825        -6.56317        -1.33040
H         -7.30315        -9.22521        -1.32476
H         -5.16589       -10.24505        -1.91164
H         -2.73658        -9.84299        -2.20870
H         -0.56324        -7.72219        -2.66393
H          2.03440        -9.44646        -2.96106
H          4.45664        -9.91266        -2.99096
H          6.59833        -8.79889        -2.78338
H          7.92367        -6.85953        -2.09644
H          8.95988        -4.73666        -1.93786
H          9.12854        -2.07927        -2.78439
