         576
 CSIRO Nanostructure Databank - Neutral Graphene Oxide Data Set
C          6.43838        19.00710        -1.32677
C          6.29003        20.35264        -1.04360
C          5.00594        21.01639        -1.06419
C          6.04936        23.18546        -0.59767
C          4.89253        22.36229        -0.87268
C          5.93578        24.56415        -0.40382
C          9.08609        14.98591        -2.10533
C          9.14789        16.47219        -2.33540
C          7.84367        17.10225        -1.90492
C          8.92114        19.20780        -1.16705
C          7.74248        18.40685        -1.46056
C          8.77214        20.52160        -0.75738
C          7.45946        21.14707        -0.74560
C          8.52413        23.29963        -0.21367
C          7.32323        22.51442        -0.53409
C          8.37573        24.74044         0.11168
C          7.05709        25.40252        -0.06586
C          8.21282        27.61471         0.42396
C          7.03301        26.77146        -0.02002
C          8.38766        28.89537        -0.34656
C         10.94783        10.55070        -0.64892
C         11.13417        12.03279        -0.91271
C          9.93095        12.82273        -1.35087
C         11.09982        14.90455        -0.65685
C         10.00269        14.23204        -1.36855
C         11.28837        16.37231        -0.84226
C         10.34706        17.16474        -1.68599
C         11.54924        19.44488        -0.97697
C         10.27336        18.70225        -1.64118
C         11.19196        20.60890        -0.05421
C          9.90825        21.26542        -0.21526
C         10.68225        23.22099         1.12089
C          9.72085        22.56151         0.22447
C         10.63490        24.70553         1.36061
C          9.41059        25.44240         0.93761
C         10.75558        27.42066         0.42510
C          9.51971        26.86902         0.58193
C         10.90746        28.71404        -0.34033
C          9.60897        29.47427        -0.52109
C         10.85969        31.58270        -0.73737
C          9.70746        30.84908        -0.94708
C         10.91253        32.97350        -1.12947
C         13.27349         6.20187        -0.31978
C         13.20466         7.63010        -0.09518
C         12.04459         8.36766        -0.21693
C         13.26198        10.57650         0.14172
C         12.00096         9.82134        -0.16599
C         13.10811        11.98334         0.61467
C         11.81547        12.69887         0.28534
C         13.13525        14.86297         0.71148
C         12.00292        14.18980         0.08176
C         13.25481        16.23864         0.66552
C         12.10564        17.10862         0.20249
C         13.46471        19.16237         0.72748
C         12.61112        18.47318        -0.31117
C         13.47336        20.56341         0.91330
C         12.20554        21.23911         0.65034
C         13.11884        23.26408         1.99699
C         11.96706        22.49909         1.38636
C         13.10571        24.80268         2.12000
C         11.92666        25.45008         1.38129
C         13.30692        27.37892         0.58627
C         11.96721        26.71602         0.85596
C         13.25769        28.90022         0.53950
C         12.05246        29.58136         0.13419
C         13.17215        31.78525         0.23495
C         12.00867        30.94898        -0.09614
C         13.22967        33.19157        -0.30952
C         12.03497        33.75602        -0.98479
C         13.32381        35.73464        -1.74247
C         12.11909        35.10665        -1.49479
C         13.44198        37.05215        -2.31255
C         15.75184         6.14284        -0.38753
C         14.45241         5.51264        -0.45056
C         15.78596         7.55424         0.04057
C         14.48511         8.29877         0.22863
C         15.88400        10.35997         0.50025
C         14.54087         9.79160         0.19364
C         16.05082        11.58056         1.16241
C         14.03757        12.66465         1.36362
C         15.32554        14.74626         1.86376
C         14.13477        14.10010         1.41959
C         15.59168        16.10386         1.66420
C         14.36842        16.87098         1.37141
C         15.68235        18.94974         1.98477
C         14.39484        18.35054         1.50844
C         15.71362        20.44209         2.03051
C         14.51795        21.18621         1.61526
C         15.68706        23.35671         2.50242
C         14.42190        22.55661         2.15228
C         15.64315        24.75795         1.87664
C         14.46276        25.42442         1.76552
C         15.70884        27.60473         1.35330
C         14.37310        26.93576         1.60184
C         15.72646        28.90761         0.92548
C         14.45618        29.58187         0.64049
C         15.75511        31.64662         0.09449
C         14.46197        31.05048         0.54742
C         15.80212        32.98272        -0.55107
C         14.55457        33.80204        -0.65165
C         15.90178        35.59529        -1.90360
C         14.58096        34.96156        -1.59048
C         15.91982        37.03803        -2.24933
C         14.65153        37.65153        -2.56025
C         18.21505         6.22249        -0.66600
C         16.94691         5.51693        -0.66967
C         18.21571         7.66909        -0.56511
C         17.02433         8.31729        -0.22600
C         18.19540        10.50622        -0.39889
C         17.02068         9.71506        -0.03040
C         18.22762        11.96158         0.07814
C         17.20304        12.36813         1.03743
C         18.27452        14.57347         1.23194
C         17.29715        13.65584         1.62043
C         18.18690        16.01680         1.55892
C         16.90474        16.75501         1.73228
C         18.16641        18.96194         1.83549
C         16.92572        18.15469         1.82006
C         18.15424        20.41533         2.16628
C         16.99543        21.18129         2.12186
C         18.19766        23.34811         2.45201
C         16.98659        22.59915         2.26884
C         18.19159        24.73370         2.25651
C         16.98866        25.43863         1.60403
C         18.19670        27.68368         1.69819
C         16.91130        26.94287         1.98424
C         18.21929        28.99587         1.28354
C         16.97649        29.68409         0.92714
C         18.20116        31.89618         0.80471
C         16.99367        31.01325         0.59641
C         18.22160        33.11932        -0.12190
C         17.11273        33.67946        -0.66300
C         18.14633        35.96212        -0.83969
C         17.22724        34.93963        -1.52720
C         18.32983        37.21431        -1.69362
C         17.10364        37.75266        -2.23264
C         20.67467         6.25395        -0.81807
C         19.42750         5.55156        -0.74927
C         20.65469         7.70727        -0.91236
C         19.44335         8.41978        -0.73639
C         20.65197        10.61762        -0.91876
C         19.47235         9.84781        -0.70033
C         20.65685        12.07925        -0.57360
C         19.48879        12.70382         0.07122
C         20.53014        14.98035         0.23617
C         19.42686        14.01433         0.55338
C         20.65358        16.09189         1.26077
C         19.38656        16.71305         1.64390
C         20.70699        18.78450         2.43113
C         19.44570        18.17587         1.88622
C         20.68525        20.27868         2.65051
C         19.34184        21.04097         2.84030
C         20.78157        23.28895         2.46106
C         19.46297        22.57842         2.70344
C         20.78999        24.78939         2.36419
C         19.43369        25.52547         2.40971
C         20.76229        27.65639         1.74515
C         19.44180        27.00140         2.09934
C         20.71301        29.02483         1.17545
C         19.48040        29.71487         1.07745
C         20.70710        31.76687         0.53412
C         19.49154        31.09870         0.76005
C         20.70215        33.27886         0.46129
C         19.54934        33.76695        -0.43683
C         20.73132        36.04935        -0.58118
C         19.45787        35.30223        -0.44306
C         20.76739        37.39959        -1.20227
C         19.53133        37.88348        -1.79126
C         23.13459         6.25056        -1.04014
C         21.89003         5.57630        -0.79767
C         23.06954         7.67277        -1.47979
C         21.82069         8.43516        -1.22547
C         23.06315        10.44046        -1.78868
C         21.81359         9.85116        -1.32478
C         23.07193        12.51858        -1.15766
C         21.78668        12.89081        -0.60913
C         23.13967        14.72472         0.47283
C         21.82320        14.26597        -0.07129
C         23.16651        15.87380         1.45415
C         21.86508        16.66109         1.52147
C         23.11534        18.79633         1.51525
C         22.01546        17.99622         2.20386
C         23.09653        20.27991         1.65406
C         21.83276        21.01598         2.01137
C         23.14487        23.19432         1.20744
C         21.87835        22.49959         1.80534
C         23.21955        24.69443         1.53038
C         22.00304        25.45981         1.81968
C         23.19655        27.48608         1.07575
C         21.97037        26.81491         1.54996
C         23.19927        28.95627         0.83752
C         21.91531        29.69571         0.89851
C         23.18925        31.67428         0.09511
C         21.91804        31.05066         0.54409
C         23.20013        33.15178        -0.22352
C         21.96971        33.90901        -0.05098
C         23.24330        36.00522        -0.44378
C         21.99118        35.22876        -0.75556
C         23.14154        37.50703        -0.38500
C         21.96915        38.05060        -1.19598
C         25.64096         6.24232        -1.44022
C         24.34550         5.61148        -0.98908
C         25.64872         7.75631        -1.35029
C         24.37067         8.43084        -1.60227
C         25.58236        10.72237        -1.85234
C         24.31193         9.89635        -1.63940
C         25.51455        12.16844        -1.21028
C         24.28696        12.77248        -0.59544
C         25.63732        14.63363         0.50746
C         24.36054        13.79754         0.52738
C         25.65817        15.97641         0.89370
C         24.41556        16.69732         1.19774
C         25.61480        18.84496         1.35751
C         24.39856        18.05937         1.34409
C         25.54938        20.11950         1.88397
C         24.35610        21.02812         2.04308
C         25.75177        23.22798         1.50971
C         24.45469        22.42053         1.42058
C         25.59011        24.56902         0.75464
C         24.41483        25.35943         1.28697
C         25.67636        27.50546         0.99849
C         24.49133        26.79619         1.23282
C         25.71813        28.93067         0.86329
C         24.46761        29.72872         1.14864
C         25.64506        31.77535         0.32913
C         24.47909        31.07650         0.46443
C         25.66355        33.19423         0.01039
C         24.47359        33.88411        -0.19611
C         25.69341        36.05270        -0.22263
C         24.43849        35.33287        -0.27284
C         25.67370        37.49069        -0.45827
C         24.47130        38.15981        -0.64704
C         28.02848         6.31978        -0.74246
C         26.84156         5.64681        -0.75729
C         28.11269         7.66803        -1.43190
C         26.81946         8.47011        -1.33569
C         28.07756        10.57475        -1.32817
C         26.84770         9.92675        -1.41048
C         28.09042        12.06731        -1.20855
C         26.81199        12.80336        -0.85213
C         28.15899        14.66344         0.23524
C         26.89628        13.82849         0.29927
C         28.14266        16.06393         0.63749
C         26.89422        16.73162         0.93580
C         28.06782        18.90605         0.89734
C         26.89385        18.16379         1.10832
C         28.01814        20.31375         0.36327
C         27.29642        21.27022         1.28641
C         27.91708        23.16407        -0.12938
C         26.98793        22.52242         0.91041
C         28.07746        24.62473         0.21277
C         26.91987        25.29649         0.80183
C         28.14885        27.48616         0.36074
C         26.97010        26.79948         0.92354
C         28.11906        28.93141         0.26987
C         26.90644        29.61358         0.61838
C         28.16447        31.79707         0.29192
C         26.92134        31.11255         0.79427
C         28.12271        33.21737         0.20896
C         26.91387        33.91807         0.08143
C         28.15352        36.07836        -0.12776
C         26.89703        35.35935        -0.07248
C         28.14445        37.51170        -0.33859
C         26.92813        38.18010        -0.51262
C         30.47803         6.34556        -0.37285
C         29.24727         5.70309        -0.29752
C         30.55436         7.74618        -0.72145
C         29.34679         8.44785        -1.05968
C         30.63260        10.51871        -1.16623
C         29.32288         9.83047        -1.17744
C         30.65709        12.00073        -0.96947
C         29.36916        12.76856        -0.87388
C         30.62239        14.66224         0.20947
C         29.33439        14.03762        -0.10756
C         30.61517        16.11741         0.53913
C         29.32403        16.79922         0.61365
C         30.61999        18.98721         0.66034
C         29.38049        18.22291         1.08682
C         30.61779        20.35956         0.42438
C         29.34692        20.98396         0.02779
C         30.56638        23.22871        -0.02432
C         29.29951        22.46566        -0.17739
C         30.53389        24.61885        -0.13491
C         29.26458        25.31498         0.01849
C         30.36589        27.37854        -0.83754
C         29.26750        26.75934        -0.00296
C         30.39431        28.91543        -0.76286
C         29.27264        29.64450        -0.11564
C         30.58839        31.78664        -0.27947
C         29.33442        31.07259        -0.00291
C         30.60989        33.21101        -0.15327
C         29.41722        33.95269         0.38712
C         30.60343        36.09952        -0.12054
C         29.36609        35.40017        -0.02318
C         30.60233        37.53481        -0.23064
C         29.39043        38.21128        -0.34387
C         32.91144         6.27631        -0.03831
C         31.70010         5.65058        -0.03506
C         33.02372         7.68747        -0.32494
C         31.80952         8.41032        -0.62663
C         33.12817        10.49182        -0.80332
C         31.89000         9.80700        -0.84870
C         33.21356        11.92597        -0.89329
C         31.94040        12.59523        -0.51814
C         33.01496        14.80454        -0.86020
C         31.92939        14.02139        -0.14988
C         33.00123        16.29463        -0.50755
C         31.82314        16.90603         0.17418
C         33.07425        19.01250         0.56183
C         31.86698        18.31909         0.61778
C         33.07391        20.42930         0.51863
C         31.82891        21.10646         0.34342
C         33.03323        23.25984         0.13163
C         31.80527        22.52660         0.13278
C         33.01158        24.64884        -0.19115
C         31.76358        25.36140        -0.31442
C         32.91864        27.38771        -1.28951
C         31.72451        26.72813        -0.62638
C         32.97291        28.90097        -1.02293
C         31.70802        29.65972        -0.94760
C         32.93251        31.88975        -1.19800
C         31.75837        31.10534        -0.64286
C         33.01778        33.26760        -0.59687
C         31.81022        33.94305        -0.30087
C         33.06838        36.08012        -0.17523
C         31.82075        35.38039        -0.15249
C         33.04873        37.52360        -0.16017
C         31.87446        38.21686        -0.21966
C         34.24584         8.35351        -0.30004
C         35.53488        10.48297        -0.36715
C         34.33995         9.76446        -0.52394
C         35.64642        11.90109        -0.53004
C         34.42028        12.64272        -0.84119
C         35.43845        14.91283        -1.14386
C         34.36709        14.11790        -0.83273
C         35.57347        16.35990        -0.79643
C         34.29669        17.06214        -0.45167
C         35.61153        18.92810         0.63266
C         34.31806        18.14637         0.60990
C         35.57576        20.43487         0.73693
C         34.29713        21.17891         0.56380
C         35.52231        23.35328         0.54197
C         34.26980        22.56200         0.40777
C         35.51330        24.75973         0.00820
C         34.23077        25.37800        -0.43603
C         35.47255        27.40081        -1.19996
C         34.21333        26.66838        -0.92121
C         35.34089        28.84106        -1.38060
C         34.18546        29.58850        -1.06051
C         35.49512        31.79287        -0.55880
C         34.34815        31.12301        -1.34500
C         35.43687        33.16129        -0.28663
C         34.24894        33.93890        -0.40136
C         34.25968        35.34788        -0.19773
C         36.87741        12.49698        -0.14736
C         38.09224        14.76768         0.07568
C         37.26343        13.83301        -0.49330
C         38.17819        16.18161        -0.52533
C         36.86193        16.93697        -0.29776
C         38.07500        19.00353         0.32131
C         36.86366        18.24371         0.20216
C         38.04922        20.43568         0.48014
C         36.83808        21.14597         0.52141
C         38.09636        23.29552         0.45612
C         36.82638        22.60809         0.87998
C         38.08885        24.65041        -0.12801
C         36.81269        25.34156        -0.46908
C         38.07070        27.57522        -0.47732
C         36.85138        26.79720        -0.90454
C         38.04804        28.98417        -0.20929
C         37.10258        29.87725        -0.72086
C         36.70613        31.13093        -0.22262
C         39.36791        16.94646        -0.01281
C         40.55410        19.07909         0.27272
C         39.33909        18.31572         0.21201
C         40.53611        20.46706         0.35736
C         39.29878        21.16668         0.51747
C         40.59063        23.36306         0.64323
C         39.28890        22.60046         0.51277
C         40.52368        24.79516         0.17099
C         39.34355        25.44088        -0.07723
C         39.23340        26.87243        -0.17058
C         41.75841        21.23362         0.12928
C         41.77599        22.58123         0.14303
O         16.30283        13.99794         2.53668
O         36.57761        14.28526        -1.66025
O         14.11569        10.40156        -1.08020
O         15.75314        31.77502        -1.39994
O         22.91570        19.65774         0.34533
O         15.22052        34.73334        -2.89349
O         28.78103        12.85929        -2.22398
O         20.06172        35.97128         0.72655
O         23.67406         7.85100        -2.80766
O         10.85925        22.43272         2.35344
O         36.38238        26.88514        -2.26256
O         21.27164        21.62905         0.78925
O         19.03597        18.82932         0.61952
O         23.00165        11.73378        -2.30642
O         35.69710        19.57063         1.95157
O         26.13259        13.19712        -2.07960
O         29.39517        21.54054        -1.32407
O         23.18147        28.07404        -0.31993
O         35.42461        24.51593         1.45869
O         15.03719        11.95233         2.04545
O         13.74225        17.58176         2.60356
O         20.21957        27.71481         3.11461
O         34.89533        17.32257        -1.73421
O         22.74375        15.12691        -0.85829
O         26.71158        20.68175         2.41667
O         20.24129        25.31527         3.60081
O         30.75989        29.43802        -2.07489
O         13.89869        34.13272         0.60062
O         11.61848        16.70501        -2.22927
O         27.23311        25.92676         2.09727
O         12.22920        20.12084        -2.00604
O         23.11750        32.10812        -1.30300
O         37.47041        24.52338        -1.49037
O         36.43940        29.44599        -1.90973
O         13.69525        31.70750         1.59782
O         13.45324        22.61902         3.27114
O         15.19818         7.76206         1.38533
O         30.75099        15.13282         1.61504
O         32.17945        13.02071         0.88871
O          9.58889        25.07581         2.33986
O         20.37060        22.93462         3.81090
O         15.51375        19.63107         3.27484
O          8.90823        24.35296        -1.21216
O         31.98171        16.96711        -1.31620
O         20.80517        19.36525         3.77313
O         17.79584        11.61460        -1.27681
O         34.70694        31.11570        -2.67715
O         30.82732        11.44300        -2.30017
O         13.70938        26.92602        -0.73027
H         13.00923        27.22677        -1.35970
O         11.24491        17.34702         1.34509
H         11.83765        17.53717         2.11549
O         32.74383        27.26380        -2.74280
H         32.68867        26.30819        -2.95659
O         27.32924        23.00545        -1.44025
H         27.91189        23.44168        -2.09645
O         29.55355        18.10026         2.56052
H         30.09816        17.30166         2.73796
O         10.26531        19.09020        -3.03937
H         11.08004        19.67755        -3.12879
O         32.63135        14.70770        -2.26310
H         32.22759        15.56512        -2.53410
O         20.49150        33.68927         1.84947
H         20.47087        34.68092         1.85934
O         11.32014        28.27201        -1.69078
H         11.31085        29.06100        -2.27440
O         22.81704        37.83125         1.02646
H         22.78298        38.80850         1.10199
O         22.07158        34.92629        -2.19388
H         21.47061        34.15225        -2.35372
O         29.98295        27.03467        -2.20447
H         30.51712        27.62427        -2.79149
O         15.69459        23.59724         3.92885
H         14.75620        23.52247         4.23423
O         28.26909         7.36688        -2.85322
H         27.47703         6.83379        -3.12052
O          9.22545        16.67481        -3.77459
H          9.62413        17.57643        -3.89446
O         25.97752        23.50388         2.91931
H         26.51956        24.32462         2.99361
O         40.78921        23.47268         2.10413
H         41.71517        23.75582         2.25807
O         18.97184        20.85865         4.23334
H         19.51314        21.48056         4.77064
O         24.43016        29.98842         2.58104
H         25.24632        30.50466         2.79811
O         38.42434        16.10532        -1.95685
H         37.75229        15.48571        -2.33292
O         22.91178        23.19816        -0.24722
H         22.51365        22.32201        -0.47551
O         23.31053        15.27882         2.78448
H         23.20290        16.02416         3.43155
O         10.91432        12.52036         1.41607
H         11.29369        12.98873         2.18913
O         24.34234        13.05879         1.79150
H         24.09949        13.71409         2.49761
O         18.07599        32.43298         2.15442
H         18.92267        32.91421         2.35019
O         32.48614        32.08590        -2.56490
H         33.24521        31.72667        -3.12830
O         19.93234        33.32416        -1.76665
H         19.20021        33.57906        -2.39074
O         29.64195        33.97627         1.85776
H         28.89693        34.47850         2.25307
O         27.20348        20.23718        -0.83099
H         27.32801        21.08001        -1.33971
O         12.06704        12.16816        -2.02610
H         11.78981        11.56774        -2.74858
O         22.60479        17.72109         3.51266
H         22.21611        18.37308         4.14983
O         20.11812        15.65856        -0.98098
H         20.93186        16.02344        -1.39652
O         25.77556         5.95615        -2.88285
H         25.03554         6.44884        -3.31758
O         17.45678        36.36291         0.36196
H         18.13690        36.71226         0.98099
O         25.33202        24.35163        -0.63978
H         24.45999        23.88982        -0.73936
O         25.74653        10.90720        -3.26455
H         26.14610        11.79968        -3.40156
O         13.92748        27.44574         2.88132
H         14.52694        27.07709         3.56887
O         34.26040        17.39499         1.85604
H         34.56654        18.00872         2.56384
O         17.24515        25.41272         0.17601
H         17.07943        24.50902        -0.16388
O         24.19777        21.27409         3.48330
H         24.94170        21.87041         3.74189
O         12.88147        25.10024         3.51860
H         12.00704        24.72972         3.76715
O          7.87802        28.05011         1.79209
H          6.98679        28.45755         1.76783
O         17.83793        34.57909        -2.79444
H         17.11805        34.19321        -3.34714
O         16.70501        26.96942         3.42507
H         16.93525        27.86285         3.75706
O         36.88345        22.59708         2.35004
H         36.53015        23.46482         2.65389
O         26.93242        31.32605         2.26664
H         27.80208        31.01880         2.60261
O         27.06379        13.00022         1.50052
H         26.15606        12.82234         1.86169
O         13.63885        18.25416        -1.29874
H         13.43983        18.96584        -1.99050
H          5.55364        18.39216        -1.55174
H          4.11070        20.41152        -1.27163
H          3.90503        22.84501        -0.91735
H          4.94594        25.03494        -0.50649
H          8.29368        14.45001        -2.65306
H          6.91873        16.54959        -2.13386
H          6.08546        27.30665        -0.19731
H          7.48270        29.49494        -0.54372
H         10.02715        10.04611        -0.98399
H          9.11817        12.32314        -1.90390
H          8.80431        31.35169        -1.32586
H         10.02533        33.39294        -1.62810
H         12.32405         5.65820        -0.44031
H         11.11105         7.84543        -0.48161
H         11.18057        35.62095        -1.75419
H         12.51556        37.60633        -2.52528
H         14.41672         4.43394        -0.66600
H         14.66667        38.68171        -2.94714
H         16.95506         4.44564        -0.92365
H         17.10084        38.79740        -2.58226
H         19.44264         4.45166        -0.76837
H         19.56532        38.83298        -2.34914
H         21.90228         4.48647        -0.64785
H         22.06226        39.04762        -1.65608
H         24.37271         4.54323        -0.72282
H         24.48807        39.24794        -0.82188
H         26.77323         4.62449        -0.35377
H         26.92909        39.26694        -0.68501
H         29.20384         4.66302         0.06167
H         29.38422        39.30656        -0.44945
H         33.82583         5.71459         0.20265
H         31.63324         4.58081         0.21222
H         34.00885        38.06001        -0.15008
H         31.88063        39.31609        -0.25736
H         35.16298         7.78929        -0.07195
H         36.44332         9.92812        -0.08512
H         36.34774        33.66681         0.07171
H         35.22563        35.86792        -0.11660
H         37.59347        11.87023         0.40678
H         38.63553        14.54483         1.00463
H         38.80922        29.37289         0.48411
H         37.38475        31.63739         0.48271
H         40.34322        16.43819        -0.06854
H         41.51171        18.55500         0.13541
H         41.45281        25.38454         0.23806
H         40.13283        27.45836         0.07344
H         42.66367        20.67024        -0.14455
H         42.70435        23.12800        -0.08405
