         297
 CSIRO Nanostructure Databank - Neutral Graphene Oxide Data Set
C         30.52890        32.13721        -2.19467
C         30.31931        33.16909        -1.50452
C         30.38496        36.44581        -1.17733
C         30.42752        37.66134        -0.96088
C         30.38763        40.61191         0.35861
C         30.19394        41.88175         0.62607
C         33.21036        29.70368        -3.19097
C         32.05107        30.21796        -3.12015
C         32.91687        31.98922        -1.71096
C         31.64367        31.32105        -2.37492
C         32.63949        33.08524        -0.63624
C         31.35594        33.96548        -0.84334
C         32.72850        36.16683        -0.66564
C         31.38279        35.45243        -0.74339
C         32.67502        37.61033        -0.19064
C         31.59530        38.58851        -0.80432
C         32.74386        40.63411         0.24444
C         31.45533        39.81573         0.04635
C         32.60431        41.66662         1.38522
C         31.21185        42.35986         1.58562
C         32.57989        44.30473         2.06589
C         31.45557        43.71054         2.11647
C         36.14974        28.27513        -3.17690
C         35.55030        29.09675        -2.12465
C         34.20342        29.74137        -2.11345
C         35.18804        31.71245        -0.71313
C         33.92165        30.95394        -1.11697
C         35.12767        33.11021        -0.45797
C         33.95001        33.86988        -0.53674
C         35.14244        36.00084         0.23464
C         33.98693        35.35537        -0.50254
C         35.25249        37.53159         0.13562
C         33.90922        38.24258         0.34986
C         35.23439        40.29759         1.05595
C         34.00646        39.74795         0.39706
C         35.17330        41.63116         1.74761
C         33.87850        42.37802         1.83408
C         35.20239        44.61221         2.17694
C         33.89829        43.88399         1.93823
C         35.40856        45.99597         1.62259
C         38.39662        27.93722        -2.31548
C         37.29746        27.84201        -3.28077
C         38.08477        29.04231        -1.30953
C         36.65547        29.60373        -1.17863
C         37.69670        31.64444        -0.09874
C         36.43423        30.97181        -0.42032
C         37.63931        33.08866        -0.28629
C         36.33480        33.65864         0.30843
C         37.62296        35.87158         1.21015
C         36.33832        35.16566         0.61501
C         37.72058        37.36592         0.81682
C         36.39924        38.10890         0.97987
C         37.72417        40.13711         1.69039
C         36.40555        39.41169         1.35940
C         37.61488        41.59781         1.16490
C         36.50845        42.37214         1.93056
C         37.57929        44.50959         0.89443
C         36.38210        43.83506         1.50082
C         37.81025        46.03324         1.05861
C         36.39710        46.55564         1.15000
C         41.49049        25.93276        -3.29438
C         40.37106        26.59462        -3.32317
C         40.66571        27.76145        -1.29586
C         39.79015        27.50611        -2.50489
C         40.52068        29.06803        -0.64503
C         39.28880        29.90586        -0.86968
C         40.15214        31.62292         0.75705
C         38.90038        30.82484         0.35865
C         40.20722        32.93557         1.11302
C         39.05657        33.73656         1.64565
C         40.17565        35.82035         1.20222
C         38.98443        35.16131         1.18418
C         40.23513        37.27431         0.81678
C         38.99994        37.96149         1.46601
C         40.20530        40.18793         1.00771
C         38.89984        39.40269         0.98652
C         40.18290        41.54130         0.89003
C         38.95383        42.36461         1.25257
C         39.94330        44.27439        -0.21227
C         38.77823        43.67014         0.48620
C         40.14174        45.78551        -0.14649
C         38.76893        46.55039         0.01403
C         39.85811        48.42527        -1.20144
C         38.97209        47.78019        -0.52540
C         43.55136        25.30797        -1.79106
C         42.35730        25.94005        -2.24139
C         43.13803        27.59363        -0.39958
C         41.95136        26.97664        -1.15511
C         42.73293        28.63198         0.63864
C         41.46517        29.42597         0.40698
C         42.71474        31.50813         1.28175
C         41.41253        30.82914         0.93792
C         42.75122        32.99636         1.34412
C         41.50212        33.73146         0.93478
C         42.73763        35.84303         1.80138
C         41.38878        35.05515         1.72851
C         42.77367        37.12668         0.97361
C         41.52239        37.97073         1.24591
C         42.83905        40.26766         1.30131
C         41.50469        39.47356         1.25858
C         42.77719        41.68562         0.68435
C         41.42762        42.32999         0.61892
C         42.33813        44.03904        -1.11774
C         41.20922        43.46041        -0.34857
C         42.15243        45.42238        -1.70903
C         41.06934        46.32213        -1.22843
C         42.18350        48.09577        -2.33782
C         41.01886        47.69526        -1.60049
C         44.18243        25.38809        -0.70890
C         45.14030        27.07836         1.15711
C         44.05402        26.51452         0.23059
C         45.18987        28.53747         1.31910
C         43.89104        29.27873         1.47447
C         45.22024        31.46803         1.70573
C         44.04239        30.76716         1.03136
C         45.01004        32.73534         2.15385
C         43.87480        33.59563         1.83774
C         45.47613        35.97854         2.00046
C         44.02955        35.09470         1.98237
C         45.41687        37.20409         1.01950
C         44.07499        37.95446         0.89646
C         45.25201        40.28450         0.62322
C         44.01194        39.45000         0.76867
C         45.05916        41.48537        -0.25987
C         43.89367        42.18325        -0.19416
C         44.71731        43.81239        -1.99635
C         43.78543        43.61166        -0.77621
C         44.65053        45.23901        -2.69967
C         43.36623        46.00429        -2.46922
C         43.23279        47.46123        -2.54518
C         47.50414        27.13947         0.93844
C         46.48415        26.48727         1.18608
C         47.72172        28.58114         1.01941
C         46.47350        29.24905         1.56616
C         47.93750        31.49980         1.83400
C         46.54132        30.74135         1.84757
C         48.12249        33.02698         1.92753
C         46.95433        33.93812         2.08397
C         48.09156        36.05907         1.62709
C         46.79853        35.22203         1.67623
C         47.90994        37.41153         0.89937
C         46.70058        38.21241         1.40511
C         47.80187        40.34663         0.23827
C         46.58558        39.64612         0.80804
C         47.57167        41.69216        -0.48958
C         46.21321        41.76450        -1.21879
C         47.27121        43.80000        -2.72014
C         46.01547        43.05996        -2.04218
C         47.04832        45.25578        -2.37972
C         45.96418        45.83570        -2.31586
C         50.30390        28.65778         0.61504
C         49.00778        29.28759         0.92889
C         50.26442        31.45538         0.58437
C         49.27693        30.68474         1.52654
C         50.54821        32.92838         0.89220
C         49.48377        33.73749         1.70566
C         50.43949        35.90397         0.37126
C         49.36848        35.25643         1.22572
C         50.31199        37.33843        -0.13430
C         49.06630        38.10179         0.24531
C         50.16129        40.09386        -0.80596
C         49.09750        39.61410         0.12991
C         49.77338        40.94157        -1.79983
C         48.72797        41.98556        -1.52722
C         49.70661        43.33927        -3.40435
C         48.63114        43.22198        -2.39867
C         51.20906        29.21537        -0.00997
C         52.40445        31.46213        -0.70901
C         51.25852        30.65446        -0.29265
C         52.36288        32.69759        -0.76071
C         51.65949        33.63538         0.12686
C         52.71131        35.93580        -0.37475
C         51.49127        35.03884        -0.37657
C         52.72073        37.16097        -0.48701
C         51.56179        38.06246        -0.59524
C         52.50453        40.24846        -1.51464
C         51.59473        39.57055        -0.52996
C         52.46905        41.24369        -2.26695
C         51.47261        41.80082        -3.10158
C         50.94980        43.07570        -3.37560
O         44.22791        44.52026         0.17719
O         38.50758        39.18469        -0.43776
O         48.12858        29.25461        -0.21603
O         41.48281        43.04130        -1.73310
O         38.87102        43.67635        -0.97081
O         43.97662        26.34935         1.62928
O         38.32145        33.28081         2.51289
O         44.91107        42.77313        -2.98443
O         37.99837        37.73768        -0.57505
O         43.29708        35.71216         3.11211
O         36.20814        29.63740         0.16405
O         50.01542        31.16842        -0.82750
O         48.83312        40.42631         1.30220
O         45.99753        40.54523         1.83447
O         43.92320        38.64504        -0.43562
O         34.42276        41.63629         2.99827
O         50.38304        40.85933        -3.07394
O         31.03603        34.65128         0.40212
O         41.87267        30.93708         2.32831
O         38.02167        27.64564        -0.93187
O         50.55115        35.92828         1.80990
O         41.44165        38.66306         2.49698
O         35.23432        35.44109         1.56167
O         42.27504        45.37692        -3.18112
O         49.27327        43.29872        -1.10709
O         51.85766        33.26354         1.49425
O         41.60394        28.32545         1.45508
O         46.57152        29.77422         2.93996
O         31.72758        41.32900         2.46491
O         35.06017        40.31974        -0.41330
O         32.90008        37.71772         1.24770
O         36.42947        44.11370         0.08575
O         40.82091        26.55642        -0.38545
O         45.97241        33.38645         2.90870
O         33.60000        35.94433        -1.80632
O         42.32599        42.64188         1.71553
O         47.97740        37.47178        -0.54396
O         34.43999        28.50736        -1.41539
O         48.15318        32.15081         3.09935
O         50.62227        37.52906        -1.56403
O         35.50255        37.82550        -1.25615
H         36.47521        37.90156        -1.41336
O         32.42373        32.46179         0.63108
H         32.00097        33.11910         1.22745
O         38.42168        46.20912         2.33336
H         38.65218        47.15216         2.46028
O         43.93835        28.28574        -1.37655
H         44.32106        27.62924        -1.99849
O         43.19445        40.43754         2.68338
H         42.82156        41.29867         2.98531
O         36.81855        42.37502         3.33322
H         36.18775        42.98779         3.78920
O         51.91814        39.92352         0.80580
H         51.94013        40.89883         0.89398
O         35.42099        44.64362         3.59491
H         34.62761        45.02212         4.02985
O         38.53303        29.95343         1.42251
H         38.21498        30.49390         2.17610
O         48.29899        36.36251         3.01858
H         49.23287        36.64060         3.14416
O         37.21710        41.58466        -0.20305
H         37.73776        40.91727        -0.70436
O         49.94801        30.46577         2.75847
H         49.68292        31.18198         3.38702
O         41.03602        34.65251         3.06248
H         41.75246        34.95023         3.67404
O         38.48671        33.80900        -0.84123
O         46.84012        38.39087         2.79230
H         46.29968        39.16725         3.06661
O         32.07329        38.97860        -2.08354
H         32.09534        39.96166        -2.14189
O         39.22704        42.77158         2.60619
H         39.23076        41.97162         3.17773
O         45.65220        36.62251        -0.26403
H         45.49616        37.30612        -0.95228
O         40.24109        37.33998        -0.62358
H         40.97063        36.74661        -0.92572
O         43.56493        29.17686         2.85680
H         42.62342        28.87800         2.92926
O         32.89846        41.39515        -0.97293
H         33.85760        41.36800        -1.22478
O         33.60357        32.59524        -2.81163
H         33.07733        33.33863        -3.17390
O         47.55541        42.72037         0.48219
H         48.21753        42.51395         1.17626
O         39.10815        37.76110         2.84923
H         38.53406        38.40043         3.32925
O         42.65511        36.53080        -0.35336
H         43.00727        37.17909        -1.00692
O         38.01991        40.13402         3.09339
H         37.38510        40.74189         3.55525
O         40.84244        45.96528         1.10667
H         41.28976        46.83759         1.11663
O         36.16002        32.98995         1.57989
H         35.47371        33.48928         2.07857
O         37.36004        35.93657         2.62600
H         37.45870        35.02277         2.98750
O         41.58330        33.98053        -0.48992
H         40.66515        34.06749        -0.83916
O         44.27464        30.73605        -0.39283
H         44.35454        31.65372        -0.72704
O         49.98539        33.81539         3.04049
H         50.89855        34.18143         2.99813
O         46.24700        40.67192        -2.16439
H         45.53218        40.83766        -2.82210
O         45.54840        36.44136         3.32209
H         45.88364        35.72762         3.90137
O         39.52026        30.85674        -1.94949
H         40.05460        30.43098        -2.65228
O         51.05841        34.88696        -1.71262
H         50.96591        35.78611        -2.11657
O         44.72208        45.02348        -4.11340
H         43.80651        44.90484        -4.45311
O         47.14734        43.66752        -4.11409
H         46.26445        44.03613        -4.37934
O         33.35504        30.32614         0.02145
H         34.03358        29.73553         0.41954
