         671
 CSIRO Nanostructure Databank - Neutral Graphene Oxide Data Set
C          5.91967        31.81936        -0.75001
C          5.92736        33.13177        -0.41415
C          8.33136        27.48354        -0.56294
C          8.32501        28.85176        -0.73511
C          7.11222        29.62792        -0.77344
C          8.40446        31.71734        -0.76074
C          7.13306        31.00964        -0.82941
C          8.34987        33.22148        -0.85855
C          7.21408        33.84207        -0.04127
C          8.39717        36.06119        -0.34911
C          7.21323        35.35256        -0.21902
C          8.45714        37.50140        -0.30812
C         10.79096        23.17686        -0.08121
C         10.75896        24.53996        -0.35052
C          9.56531        25.32101        -0.36516
C         10.79943        27.45571        -0.38472
C          9.56232        26.72976        -0.46096
C         10.85241        28.85479        -0.49379
C          9.63057        29.57131        -1.01993
C         10.81623        31.74622        -0.19860
C          9.57965        31.03997        -0.68171
C         10.86407        33.20236        -0.57060
C          9.66045        33.91443        -0.60035
C         10.88959        36.00100        -0.51176
C          9.65807        35.32219        -0.50347
C         10.92584        37.44094        -0.20074
C          9.66543        38.20969        -0.23750
C         10.99299        40.32176        -0.19458
C          9.76434        39.61943        -0.10907
C         11.07519        41.73684         0.00273
C         13.29670        18.86776         0.32613
C         13.24943        20.26375         0.31277
C         12.05239        21.02981         0.19657
C         13.25870        23.16706        -0.04567
C         12.02577        22.43177         0.01303
C         13.29497        24.54451        -0.30830
C         12.03173        25.26704        -0.74474
C         13.27054        27.44830        -0.58337
C         12.04430        26.65600        -0.07833
C         13.30640        28.82314         0.09955
C         12.06559        29.58506        -0.33188
C         13.31636        31.72817        -0.45209
C         12.10825        30.99829        -0.40062
C         13.35247        33.14007        -0.68874
C         12.09807        33.88387        -0.68109
C         13.32997        36.02244        -1.04040
C         12.08863        35.29549        -0.72873
C         13.42915        37.47147        -0.84211
C         12.24756        38.18884        -0.36640
C         13.39657        40.32129        -0.87920
C         12.21480        39.64101        -0.49270
C         13.42575        41.77145        -0.79455
C         12.25951        42.43332        -0.20782
C         13.56580        44.50706        -0.03728
C         12.43606        43.76662         0.27664
C         13.83621        45.72406         0.63230
C         15.81365        14.64692         0.81890
C         15.81501        16.02396         0.56380
C         14.57752        16.75600         0.45021
C         15.79413        18.88306         0.24344
C         14.53688        18.14429         0.36512
C         15.80128        20.24120         0.22781
C         14.53736        20.98340         0.43576
C         15.79059        23.16451        -0.22008
C         14.52288        22.46794         0.25551
C         15.73962        24.59037         0.31148
C         14.50118        25.28236        -0.19136
C         15.77916        27.36457        -0.44346
C         14.55422        26.67839        -0.37705
C         15.74441        28.80340        -0.88989
C         14.61771        29.55532        -0.18998
C         15.84296        31.69883        -0.83953
C         14.60716        31.02701        -0.39747
C         15.83656        33.09419        -0.94280
C         14.58119        33.79743        -0.88599
C         15.88055        36.01178        -0.89335
C         14.60808        35.24337        -1.16950
C         15.84637        37.44230        -1.40593
C         14.58289        38.16668        -1.19856
C         15.70409        40.31265        -1.84184
C         14.55518        39.59581        -1.25883
C         15.71204        41.83405        -1.75111
C         14.55530        42.50052        -1.11852
C         15.75385        44.76905        -1.27310
C         14.42559        44.01718        -1.18415
C         15.68693        46.28148        -0.96211
C         14.81816        46.63721         0.24706
C         15.42957        49.07129         0.41063
C         14.83223        47.89669         0.90498
C         15.54553        50.29309         1.10931
C         18.23609        10.35758         1.35465
C         18.23022        11.81338         1.74853
C         17.00338        12.55695         1.32111
C         18.27966        14.64997         1.02743
C         17.02566        13.92198         1.04968
C         18.27400        16.04567         0.73377
C         17.06615        16.71622         0.47025
C         18.32631        18.90250         0.33353
C         17.07539        18.13408        -0.04807
C         18.32860        20.28329         0.30632
C         17.07714        20.98538        -0.15736
C         18.16468        23.18069         0.81248
C         17.02143        22.43426         0.19677
C         18.20573        24.62058         0.30513
C         17.04828        25.29292         0.05235
C         18.23261        27.40361        -0.50038
C         17.03255        26.70787        -0.30478
C         18.25983        28.82286        -0.70972
C         17.05454        29.53848        -0.77847
C         18.30008        31.65429        -1.01264
C         17.06234        30.95586        -0.89966
C         18.30476        33.07731        -1.14946
C         17.08016        33.79906        -1.14000
C         18.29741        35.88955        -1.46600
C         17.10207        35.21849        -1.27659
C         18.33978        37.36578        -1.79952
C         16.99724        38.08438        -1.73450
C         18.25345        40.28339        -1.51954
C         17.01860        39.55576        -2.13479
C         18.12557        41.71965        -1.07149
C         17.09108        42.53443        -1.83542
C         18.32388        44.64448        -0.90742
C         17.05958        44.02273        -1.42249
C         18.32572        46.10051        -0.75940
C         17.09010        46.87367        -0.89721
C         18.34415        48.98935        -0.56075
C         17.15223        48.24799        -0.84009
C         18.29249        50.33006        -0.23098
C         16.47866        51.28895         0.71066
C         18.15175        53.11188         1.09589
C         16.91865        52.41178         1.40023
C         18.25878        54.44055         1.56817
C         20.55873         5.95261         1.09980
C         20.56763         7.46878         0.93035
C         19.42519         8.20182         1.04012
C         20.65951        10.38579         1.10078
C         19.40613         9.66295         1.13476
C         20.69270        11.77513         1.25357
C         19.50512        12.53814         1.39333
C         20.75715        14.67829         1.11813
C         19.51329        13.94762         1.19996
C         20.77460        16.04862         0.88862
C         19.53456        16.77516         0.68128
C         20.83660        18.88396         0.24460
C         19.54344        18.15711         0.51999
C         20.81540        20.35949         0.58294
C         19.53528        21.07145         0.52981
C         20.71432        23.24452         0.81224
C         19.47875        22.44588         0.67615
C         20.75213        24.64603         0.35391
C         19.47837        25.43518         0.42956
C         20.76350        27.41440        -0.43422
C         19.49945        26.59840        -0.55968
C         20.75037        28.81403        -0.65762
C         19.51443        29.52892        -0.77067
C         20.77745        31.65357        -0.83561
C         19.53219        30.93719        -0.92513
C         20.79026        33.10263        -0.95154
C         19.54852        33.78810        -1.17357
C         20.74568        35.93990        -1.08579
C         19.53597        35.19624        -1.31905
C         20.65676        37.32306        -0.79004
C         19.30835        38.01747        -0.78836
C         20.44842        40.20321        -0.16653
C         19.42533        39.51917        -0.99613
C         20.50212        41.57392        -0.04769
C         19.31804        42.39609        -0.45711
C         20.74862        44.50952        -0.31140
C         19.43115        43.87616        -0.58492
C         20.74669        46.01978        -0.16375
C         19.48450        46.75437        -0.37152
C         20.55343        48.88449         0.58366
C         19.65212        48.25191        -0.50101
C         20.65968        50.37486         0.36513
C         19.41702        51.08817         0.25982
C         20.59985        53.25598         0.34125
C         19.33277        52.46012         0.58416
C         20.66405        54.60808         1.00840
C         19.44039        55.21421         1.51720
C         20.68611        57.28886         2.02704
C         19.49538        56.51621         2.04014
C         20.76026        58.52736         2.64355
C         23.17848         3.32220         0.05098
C         21.91733         4.00095         0.24791
C         23.13988         5.94694         1.07209
C         21.86861         5.26009         0.76091
C         23.13457         7.44206         1.05240
C         21.86282         8.16104         0.73726
C         23.20591        10.29796         1.31543
C         21.91311         9.65271         0.82810
C         23.24578        11.75301         0.89963
C         21.96667        12.50358         1.01458
C         23.32339        14.60940         1.15701
C         22.01885        13.93360         1.50369
C         23.32558        16.10312         1.30106
C         22.02219        16.79070         0.93007
C         23.31360        18.88484         0.76655
C         22.05094        18.15362         0.75958
C         23.30734        20.36069         1.04790
C         21.99012        21.03144         0.74742
C         23.20914        23.18515         0.23963
C         22.01234        22.50333         0.86926
C         23.19704        24.66927         0.42260
C         21.97414        25.32782         0.16977
C         23.20532        27.40353        -0.59485
C         21.97852        26.74685        -0.25265
C         23.22195        28.80328        -0.76150
C         21.98533        29.52684        -0.64936
C         23.18427        31.68234        -0.10775
C         21.96640        30.95290        -0.61841
C         23.23577        33.15260        -0.49329
C         21.99577        33.82635        -0.85382
C         23.15844        36.01211        -0.56298
C         21.98529        35.26539        -0.89046
C         23.04539        37.36162        -0.18309
C         21.75335        37.98436        -0.24542
C         22.59773        39.92259         1.16834
C         21.49803        39.31049         0.36701
C         22.57362        41.41111         1.20492
C         21.64672        42.22710         0.59032
C         23.04703        44.47548         0.98549
C         21.97973        43.65754         0.09695
C         23.07640        45.97026         0.71574
C         21.76458        46.67625         0.79376
C         23.08221        48.84501         0.55395
C         21.87391        48.17103         0.61613
C         23.12042        50.29768         0.49211
C         21.87844        51.03572         0.47549
C         23.09617        53.14257         0.54398
C         21.89184        52.47302         0.50470
C         23.09057        54.62314         0.59361
C         21.84152        55.29126         1.01992
C         23.20399        57.31798         1.77560
C         21.88275        56.78492         1.25137
C         23.22171        58.61766         2.36223
C         21.99763        59.25203         2.75250
C         23.27371        61.20095         3.48825
C         22.04577        60.53649         3.31779
C         24.37455         3.91177         0.32869
C         25.62797         5.96030         0.92196
C         24.44705         5.28178         0.80118
C         25.67365         7.42551         1.30311
C         24.43128         8.12360         0.64109
C         25.69038        10.32239         0.53972
C         24.45267         9.57603         0.93247
C         25.70526        11.75768         1.00491
C         24.53997        12.45786         1.06295
C         25.79499        14.57956         0.81912
C         24.50849        13.91966         1.08556
C         25.76247        16.00508         0.39595
C         24.47900        16.75045         0.56409
C         25.74772        18.91952         0.17086
C         24.49597        18.22366         0.62831
C         25.81004        20.39275         0.50749
C         24.54575        21.11434         0.58849
C         25.77276        23.25643         0.49724
C         24.50876        22.47865         0.50056
C         25.77874        24.75066         0.50443
C         24.45202        25.51675         0.44070
C         25.67146        26.97004        -1.19956
C         24.34993        26.40509        -0.81096
C         25.62898        29.12325        -1.45285
C         24.43266        29.62595        -0.93795
C         25.66717        31.68237        -0.44996
C         24.46433        30.98066        -0.49910
C         25.63959        33.08067         0.11785
C         24.40597        33.83901        -0.33641
C         25.60944        36.02206         0.09108
C         24.50807        35.31923        -0.66162
C         25.60776        37.54212         0.02237
C         24.19014        38.08343         0.39560
C         25.92844        40.43898         1.07351
C         23.92694        39.21926         1.11461
C         25.82970        41.82430         0.80518
C         24.62369        42.54826         1.07603
C         25.52211        44.59240         0.23888
C         24.39807        43.85106         0.69688
C         25.51174        45.97715         0.41893
C         24.25777        46.67611         0.58228
C         25.58302        48.79933         0.50985
C         24.33750        48.12381         0.55090
C         25.59766        50.24149         0.43238
C         24.34160        50.96941         0.41732
C         25.56385        53.09529         0.53791
C         24.35372        52.42394         0.46561
C         25.59290        54.47555         1.05053
C         24.38992        55.33139         0.86393
C         25.67683        57.30613         1.73298
C         24.40019        56.66516         1.50641
C         25.67627        58.63351         2.22108
C         24.47247        59.28071         2.57388
C         24.46637        60.59487         3.13098
C         26.92629         8.16500         0.91880
C         28.18797        10.27722         0.77526
C         26.96770         9.54514         0.83615
C         28.24222        11.68919         0.81031
C         27.01668        12.44858         1.28489
C         28.22376        14.53865         0.29026
C         26.97204        13.89242         0.83926
C         28.28356        16.02440         0.55283
C         27.03160        16.78060         0.42570
C         28.27926        18.91199         0.71497
C         27.00308        18.14525         0.46846
C         28.26069        20.34554         0.23725
C         27.00697        21.06107         0.35662
C         28.27851        23.26556         0.23870
C         26.98510        22.52300        -0.02579
C         28.29006        24.70401        -0.11690
C         27.08254        25.55947         0.26506
C         28.09455        27.41588        -1.26964
C         26.89093        26.69486        -0.70812
C         28.12223        28.92988        -1.28653
C         26.90046        29.68855        -1.18538
C         28.15175        31.74611        -0.65124
C         26.91132        31.04604        -0.74912
C         28.10896        33.17549        -0.34860
C         26.92436        33.83220        -0.08174
C         28.09055        36.04815        -0.18714
C         26.89499        35.27837         0.39316
C         28.15620        37.49600         0.25789
C         26.87659        38.15777         0.75638
C         28.13365        40.36325         0.13431
C         26.98252        39.66749         0.60610
C         28.08276        41.76951        -0.08455
C         26.88533        42.46400         0.12821
C         28.01159        44.59087         0.07227
C         26.73825        43.89930        -0.33954
C         27.87954        45.78129         0.72217
C         26.74912        46.66822         0.57269
C         28.11342        48.81456         0.44382
C         26.85243        48.08197         0.56459
C         28.06126        50.22489         0.29849
C         26.82277        50.92522         0.35336
C         28.10686        53.11532         0.52358
C         26.83084        52.41794         0.10103
C         28.13998        54.44207         0.91612
C         26.93459        55.19683         1.26770
C         26.88283        56.64387         1.39104
C         29.44539        12.38204         0.64736
C         30.71173        14.50089         0.64260
C         29.51913        13.81865         0.60484
C         30.79888        16.00059         0.83818
C         29.47866        16.67553         0.58124
C         30.69923        18.77504        -0.23597
C         29.45631        18.11379         0.22247
C         30.67038        20.26177        -0.41046
C         29.43379        20.99683        -0.06296
C         30.75714        23.18528        -0.35714
C         29.52616        22.47176         0.03218
C         30.71665        24.57509        -0.59057
C         29.44036        25.29079        -0.57592
C         30.67947        27.39372        -1.37306
C         29.38947        26.65263        -1.18467
C         30.61179        28.91129        -1.44018
C         29.33273        29.63075        -1.18441
C         30.62853        31.76220        -0.79176
C         29.36307        31.04967        -0.89783
C         30.63001        33.17607        -0.50688
C         29.38134        33.90221        -0.30475
C         30.64497        35.98884         0.06225
C         29.37582        35.25976        -0.07073
C         30.63201        37.49303         0.10104
C         29.32735        38.20157         0.11833
C         30.58727        40.31887        -0.22486
C         29.38387        39.65053         0.00866
C         30.59601        41.76469        -0.53376
C         29.29303        42.50424        -0.54039
C         30.65163        44.67529        -0.11092
C         29.30313        44.04233        -0.50253
C         30.75606        46.08895         0.03057
C         29.70127        46.86867         0.57326
C         30.58557        48.92380        -0.22032
C         29.42397        48.19714         0.26320
C         30.49364        50.33515        -0.23933
C         29.29328        50.98892         0.09178
C         29.29732        52.38882         0.28596
C         32.00221        16.73538         0.25512
C         33.21305        18.85508        -0.23484
C         31.99902        18.06216        -0.08775
C         33.22601        20.23026        -0.37324
C         31.96497        20.99631        -0.53752
C         33.19901        23.15963        -0.49062
C         31.97751        22.47360        -0.42059
C         33.18618        24.58434        -0.62019
C         31.94934        25.28021        -0.77184
C         33.15249        27.40181        -0.99599
C         31.95519        26.70034        -1.03051
C         33.16918        28.88223        -1.15040
C         31.89674        29.65933        -1.28908
C         33.12087        31.75653        -0.80687
C         31.87179        31.08676        -0.90654
C         33.11092        33.23886        -1.04394
C         31.84199        33.88714        -0.53680
C         33.06528        36.01027        -0.48667
C         31.87818        35.28997        -0.33768
C         33.03186        37.46455        -0.65147
C         31.84103        38.22810        -0.31839
C         33.08899        40.36826        -0.47409
C         31.84470        39.61968        -0.36965
C         33.07438        41.81317        -0.42684
C         31.86674        42.52378        -0.43943
C         33.10827        44.67411        -0.43355
C         31.84837        43.95319        -0.35115
C         33.11229        46.08814        -0.55973
C         31.92904        46.82712        -0.36453
C         31.80757        48.24499        -0.44996
C         34.43435        21.02257        -0.35438
C         35.75603        23.13317        -0.31138
C         34.43577        22.39871        -0.41788
C         35.68291        24.62890        -0.54542
C         34.42902        25.30545        -0.64988
C         35.63970        27.43041        -0.82219
C         34.40881        26.71960        -0.78854
C         35.61539        28.89233        -0.98618
C         34.34993        29.57804        -0.51387
C         35.58786        31.75258        -0.58173
C         34.35486        31.07241        -0.71433
C         35.57316        33.19837        -0.16164
C         34.34936        33.95686        -0.57749
C         35.58952        36.05370        -0.06603
C         34.33296        35.31823        -0.48325
C         35.60185        37.53627        -0.34705
C         34.38421        38.25671        -0.66685
C         35.57276        40.40175        -0.29290
C         34.32227        39.70221        -0.45554
C         35.54804        41.81365        -0.28123
C         34.33145        42.53038        -0.37992
C         34.31459        43.94093        -0.44223
C         36.87012        25.34560        -0.60252
C         38.11453        27.51231        -0.69674
C         36.88259        26.76470        -0.73988
C         38.15657        28.90328        -0.71734
C         36.90599        29.65588        -0.94318
C         38.05793        31.78646        -0.42607
C         36.84318        31.09121        -0.59669
C         38.05271        33.23884        -0.39297
C         36.86189        33.92382        -0.43002
C         38.09497        36.12713        -0.25048
C         36.83143        35.40745        -0.69199
C         38.04347        37.48607        -0.03537
C         36.80033        38.24306        -0.16224
C         36.78287        39.66192        -0.19330
C         39.34026        29.67227        -0.50650
C         40.52666        31.83780        -0.30577
C         39.30734        31.07011        -0.42250
C         40.53133        33.20413        -0.26362
C         39.31459        33.97624        -0.32073
C         39.30912        35.35831        -0.19510
O         24.92007        39.86110         1.84463
O         29.75493        18.18739        -1.21079
O         32.80339        29.42578        -2.43961
O         29.84853        42.02025        -1.81120
O         36.20949        29.37280        -2.22086
O         14.60034        21.90406         1.59889
O         25.57239        27.94303        -2.21015
O         22.52883        12.17446        -0.30088
O         16.42999        44.70422        -2.58073
O         11.76197        37.72339         0.96680
O         21.48452        23.05181         2.09981
O         18.11532        41.96660         0.35235
O         19.42388        40.03932        -2.36533
O         15.96574        48.99544        -0.88395
O         21.50068        39.23428         1.85934
O         33.69441        37.84790        -1.89883
O         30.65519        28.09844        -2.65000
O         23.67345        41.91926         1.89031
O         28.59589        26.68581        -2.43129
O         15.32942        41.15759        -2.98966
O         25.92468        24.00358         1.76286
O         23.09316         6.74939         2.33427
O         13.89620        35.62987        -2.37119
O         31.18977        20.62157        -1.74440
O         14.97311        30.37632         0.95125
O         24.85673        16.23026        -0.76066
O         30.81571        36.71280         1.35230
O         28.91813        46.23348         1.53235
O         21.21803        45.41062        -1.40223
O         29.04449        22.89387         1.40927
O         13.05836        27.72661        -1.96918
O         21.98504         8.98050        -0.48248
O         26.14994        54.54901         2.38011
O         17.13857        51.05034        -0.51722
O         23.82900        55.29898        -0.49543
O         36.73449        22.53754        -1.17526
H         36.43531        22.65181        -2.10058
O         27.81983        36.10800        -1.62454
H         28.42412        36.76275        -2.03280
O         12.08924        26.36921         1.33071
H         12.21247        27.22198         1.81251
O         21.76819        57.35657        -0.09629
H         22.43067        56.88763        -0.65607
O         14.99859        46.85580        -2.09358
H         15.47022        46.55656        -2.90029
O         18.89181        37.46071        -3.12143
H         18.59179        38.31458        -3.52282
O         15.74877        23.24496        -1.66838
H         16.18451        22.43337        -2.03040
O         25.69844        10.41974        -0.93462
H         25.51989         9.50705        -1.27016
O         19.44973        25.99508         1.77497
H         19.40304        25.24175         2.40523
O         15.57739        24.50770         1.76406
H         15.33165        25.39632         2.09770
O         20.96940        18.85541        -1.22730
H         21.23881        17.94821        -1.48539
O         22.67479        43.35459        -1.13389
H         22.58857        44.13807        -1.72617
O         17.53116        42.47856        -3.20653
H         17.05255        43.18967        -3.69072
O         17.10202        20.88684        -1.64225
H         17.10472        19.91602        -1.85901
O         19.53778        25.98232        -1.88331
H         19.37324        26.67894        -2.55300
O          9.78329        29.53922        -2.48681
H         10.21498        28.69106        -2.72730
O         35.48849        33.14648         1.34229
H         36.33033        32.75091         1.65872
O         12.01967        25.37192        -2.17282
H         12.48237        26.23580        -2.41054
O         36.71647        35.58306        -2.13114
H         37.44085        35.08153        -2.55978
O         29.21203        44.46005        -1.91802
H         29.69000        43.75842        -2.43005
O         18.70279        37.82145         0.52215
H         19.35053        38.10018         1.20697
O         28.44716        18.99875         2.16645
H         27.74392        19.58340         2.52124
O         26.84340        52.56554        -1.37161
H         26.04735        52.11093        -1.72150
O         23.10858        10.31815         2.79040
H         23.71130         9.62970         3.14711
O          8.04579        33.48325        -2.26078
H          7.93755        34.45273        -2.36640
O         13.20727        28.70297         1.54137
H         13.70969        29.46636         1.92042
O         25.77273        37.92326        -1.37402
H         25.53273        37.14398        -1.93569
O         23.96177        25.54107        -1.92456
H         24.07249        26.05819        -2.75213
O         26.86113        22.53461        -1.48153
H         26.30283        21.77581        -1.75830
O         22.00406        13.87665         2.97672
H         21.14149        13.49304         3.24899
O         26.56603        43.89433        -1.78208
H         27.45440        44.08523        -2.17869
O         24.41933        26.40366         1.57689
H         24.61230        25.86435         2.37373
O         31.02423        16.14192         2.29634
H         30.25189        15.74902         2.75669
O         17.21808        39.57818        -3.56265
H         17.20495        40.52761        -3.83713
O         22.70587        44.31940         2.38854
H         22.98828        43.41704         2.67376
O         19.47395         5.37856         0.37040
H         19.56738         5.62722        -0.57176
O         26.77838        37.88852         2.16802
H         26.91985        36.91533         2.30497
O         23.41934        20.45089         2.51520
H         22.62464        20.03101         2.90791
O         18.19122        11.79226         3.25341
H         18.85532        11.13059         3.54492
O         24.55655         7.90948        -0.80601
H         23.73717         8.29757        -1.20178
O         21.16981        46.45165         2.12756
H         21.68332        45.73309         2.57811
O         27.16773        12.47509         2.74931
H         26.35424        12.87465         3.12497
O         27.07446        35.21155         1.85187
H         26.39468        34.57332         2.18126
O         20.35817        48.46593        -1.76205
H         19.94325        47.90121        -2.44769
O         33.07984        33.41471        -2.50863
H         32.41110        32.79413        -2.86965
O         25.50197        32.92949         1.60432
H         26.17666        32.27333         1.88620
O         23.56374        16.35840         2.72180
H         22.99264        15.72843         3.22047
O         34.23752        29.33855         0.92245
H         34.77479        30.01063         1.39204
O         15.95610        36.12824         0.56309
H         16.79839        36.58999         0.78099
O         25.63469        18.91352        -1.30217
H         25.42755        17.98137        -1.55981
O          7.48318        33.57851         1.36362
H          6.75710        33.96968         1.89178
O         24.86668        35.39785        -2.11003
H         24.10279        35.04975        -2.61926
O         15.43543        28.80661        -2.31088
H         14.52837        28.36694        -2.41878
O         23.06178        31.63158         1.34614
H         23.83380        32.13094         1.71398
O         10.66568        31.75188         1.27586
H         11.33706        32.36528         1.64360
O         25.54917         7.57579         2.73891
H         24.73862         7.08052         3.01490
O         28.10013        14.41557        -1.16518
H         27.28745        14.88998        -1.44353
O         17.93894        23.27032         2.26973
H         17.01346        23.61420         2.38771
O         35.69435        35.93829         1.38079
H         35.55204        34.98395         1.61088
O         17.12497        18.04927        -1.52899
H         17.95179        17.57592        -1.76602
O         22.99858        22.98755        -1.21263
H         23.37080        23.77405        -1.68524
O         19.86817        48.74820         1.85893
H         20.19850        47.91988         2.28954
O         20.52951        53.56958        -1.09896
H         20.44443        52.72215        -1.58598
O         27.44121        26.13961         1.54601
H         27.37140        25.41517         2.20897
O         13.69204        44.29060        -2.40572
H         14.31028        44.14469        -3.15365
H          4.95844        31.31403        -0.93635
H          4.97509        33.68078        -0.33353
H          7.37736        26.93822        -0.48547
H          6.14982        29.09891        -0.68680
H          6.27204        35.90425        -0.05973
H          7.50996        38.06043        -0.26122
H          9.85087        22.64889         0.14760
H          8.59464        24.80133        -0.30834
H          8.83979        40.20460         0.00809
H         10.19549        42.27290         0.38847
H         12.35901        18.29198         0.28856
H         11.09388        20.48728         0.19736
H         11.70230        44.17096         0.99022
H         13.14972        46.01262         1.44439
H         14.85535        14.11012         0.88451
H         13.63439        16.19229         0.51407
H         14.25457        47.97426         1.84009
H         15.05659        50.38856         2.08920
H         17.27931         9.81446         1.39546
H         16.04029        12.02438         1.33609
H         16.31707        52.79627         2.23792
H         17.36571        54.89843         2.02060
H         20.35347         5.74103         2.18793
H         18.46652         7.67524         1.16803
H         18.59615        56.94026         2.51367
H         19.86075        58.95403         3.11425
H         23.15446         2.29113        -0.32882
H         20.98333         3.47608         0.00128
H         23.28321        62.21097         3.92170
H         21.11191        61.02793         3.62620
H         25.31512         3.36487         0.16983
H         26.57046         5.43938         0.69000
H         26.63449        59.14982         2.37963
H         25.42185        61.11840         3.27840
H         27.86410         7.59046         0.83171
H         29.13695         9.71517         0.76611
H         29.11389        54.94782         1.00954
H         27.81553        57.22155         1.31393
H         30.37657        11.80653         0.51696
H         31.64125        13.92873         0.80062
H         31.38708        50.93529        -0.46625
H         30.26460        52.91258         0.33077
H         32.97206        16.22410         0.36902
H         34.17491        18.32933        -0.12622
H         34.05696        46.60460        -0.78446
H         32.69725        48.83958        -0.70404
H         35.39972        20.49877        -0.27931
H         36.14133        22.97902         0.73721
H         36.49309        42.37095        -0.19907
H         35.27026        44.48536        -0.47467
H         37.82481        24.80422        -0.52819
H         39.05221        26.95206        -0.56041
H         38.96950        38.04167         0.18142
H         37.73165        40.21188        -0.10517
H         40.30653        29.15200        -0.42277
H         41.47962        31.28907        -0.26968
H         41.48609        33.74513        -0.18432
H         40.25974        35.88551        -0.01727
