         300
 CSIRO Nanostructure Databank - Neutral Graphene Oxide Data Set
C         30.93697        31.61292        -2.55296
C         31.01616        32.72170        -1.84436
C         30.74945        35.93443        -1.61512
C         30.65682        37.15699        -1.57904
C         30.68604        40.42123        -1.86019
C         30.75400        41.59816        -2.23884
C         33.42309        28.99657        -1.75176
C         32.38055        29.49524        -2.19076
C         33.07746        31.55526        -0.54673
C         31.50566        30.56492        -1.81743
C         33.00771        32.93106        -0.67661
C         31.81544        33.60835        -1.19186
C         32.68039        35.85291        -0.17449
C         31.44171        34.99284        -0.69677
C         32.79397        37.34590        -0.54201
C         31.47719        38.15800        -0.81197
C         33.11106        40.21416        -1.40783
C         31.72476        39.44349        -1.55618
C         33.15818        41.69047        -1.75359
C         31.94412        42.43288        -2.38461
C         33.27794        44.39282        -2.29815
C         32.14033        43.88784        -2.31623
C         35.89643        27.05182        -0.67208
C         35.67925        28.49349        -0.45854
C         34.59894        29.39547        -0.98050
C         35.59742        31.66967        -0.37955
C         34.32515        30.74224        -0.19758
C         35.30119        33.05251         0.31752
C         34.24322        33.80333        -0.52141
C         35.24441        35.96867         0.41254
C         33.98108        35.17036         0.08653
C         35.22975        37.47111         0.42676
C         34.09192        38.13764        -0.32463
C         35.24568        40.42280         0.05298
C         34.13685        39.59745        -0.57871
C         35.46502        41.71236        -0.72366
C         34.32051        42.48872        -1.20362
C         35.85862        44.49679        -1.94938
C         34.48787        43.96130        -1.57703
C         36.12403        45.95075        -1.67748
C         38.03577        26.82085         0.50320
C         36.93790        26.44403        -0.40398
C         37.90964        28.28831         0.80203
C         36.69909        28.88678         0.61204
C         38.16376        31.17636        -0.07405
C         36.82829        31.01912         0.17933
C         37.57964        33.32714         1.32023
C         36.58623        33.83291         0.50082
C         37.76466        35.99251         0.90805
C         36.60958        35.30750         0.13408
C         37.79239        37.47389         0.64476
C         36.51015        38.27697         0.76318
C         37.76348        40.43729         0.73384
C         36.61534        39.62873         0.03378
C         37.66770        41.93419         0.52103
C         36.73450        42.42852        -0.53866
C         38.30772        44.54943        -0.76022
C         37.03865        43.76757        -1.16573
C         38.46126        46.05082        -0.97409
C         37.14390        46.56750        -1.38122
C         40.87495        24.39383         0.03665
C         39.75198        24.90416         0.03254
C         40.51593        26.90869         1.28337
C         39.30670        26.10905         0.74429
C         40.34103        28.36957         1.68438
C         39.01166        29.14601         1.48196
C         40.25858        31.37382         1.16346
C         39.21684        30.56489         0.77782
C         40.22258        32.91648         1.24018
C         38.98799        33.81488         1.26885
C         40.32344        35.96902         0.95075
C         39.08519        35.21872         0.61064
C         40.32280        37.45612         1.14767
C         39.08451        38.23819         0.59975
C         40.41500        40.28733         1.24875
C         39.00568        39.63164         1.31504
C         40.53837        41.69126         1.57162
C         38.76930        42.83032         0.90642
C         40.52000        44.65350         0.58293
C         39.19680        43.94092         0.26552
C         40.16137        46.15191         0.94129
C         39.62052        46.84733        -0.37101
C         40.20769        48.96279         0.63437
C         39.37316        48.28069         0.02688
C         43.42070        24.36041         0.73152
C         42.16185        25.01702         0.31477
C         43.01631        26.99773         1.90145
C         41.91933        26.38657         0.99573
C         42.93344        28.55572         1.86338
C         41.58144        29.22570         1.91256
C         42.79242        31.53069         1.81344
C         41.40590        30.76936         1.97409
C         42.77315        32.98849         1.46846
C         41.52706        33.65375         0.85007
C         42.83831        35.90732         0.78382
C         41.55353        35.17633         1.30582
C         42.85443        37.37971         1.20268
C         41.64353        38.15015         0.68251
C         42.90480        40.31222         1.11494
C         41.59519        39.60263         1.09176
C         42.92884        41.81076         1.17360
C         41.62790        42.46967         1.33558
C         42.68584        44.71263         2.00197
C         41.47918        43.94076         1.56595
C         42.57410        46.23861         2.07930
C         41.30691        46.91603         1.63461
C         42.65487        48.99957         1.49982
C         41.20077        48.79437         1.67895
C         44.31156        25.13590         1.17851
C         45.47994        27.32031         1.16192
C         44.41240        26.48272         1.53233
C         45.30365        28.68935         0.87267
C         43.97546        29.38172         1.09876
C         45.30988        31.56024         0.92188
C         44.18424        30.78384         1.72573
C         45.32618        33.05415         0.85001
C         44.09139        33.74087         1.34774
C         45.40393        35.91338         1.01526
C         44.09122        35.21995         1.26988
C         45.48512        37.36611         1.33971
C         44.15365        38.07721         1.52664
C         45.45287        40.37181         1.41839
C         44.16638        39.59133         1.51856
C         45.45931        41.90104         1.33677
C         44.13184        42.53886         1.68484
C         45.29153        44.81705         1.64053
C         44.05111        44.00868         1.98144
C         45.12732        46.33578         1.85462
C         43.89129        47.01309         2.43133
C         43.65187        48.39405         1.89204
C         47.63791        27.38378        -0.00461
C         46.73945        26.84076         0.65342
C         47.40539        28.66244        -0.70318
C         46.22158        29.38196        -0.06405
C         47.39764        31.64625        -0.53657
C         46.08155        30.89548        -0.23621
C         47.35828        33.00425        -0.62764
C         46.05431        33.75155        -0.33289
C         47.61609        36.03264        -0.16248
C         46.22504        35.39991        -0.15837
C         47.79495        37.34687         0.21501
C         46.73830        38.13555         0.95703
C         47.77952        40.46961         0.30817
C         46.74353        39.65358         1.06420
C         47.70777        41.96837         0.05088
C         46.57251        42.74253         0.75625
C         47.28427        45.11809         0.13754
C         46.34741        44.24087         0.67442
C         47.00692        46.50465         0.39999
C         46.01763        47.03391         0.92442
C         49.82689        28.83034        -1.47209
C         48.45660        29.47192        -1.42898
C         49.88063        31.63505        -1.24732
C         48.70015        30.84246        -0.65086
C         49.56373        32.97274        -1.95686
C         48.46011        33.79342        -1.26011
C         49.81973        36.01546        -1.49731
C         48.56068        35.29920        -1.06536
C         50.20233        37.27367        -0.69816
C         48.99931        38.12750        -0.21244
C         49.31595        40.22377        -1.66501
C         48.80827        39.62300        -0.42502
C         49.09044        41.52295        -2.03646
C         48.47726        42.51576        -1.14095
C         49.98769        44.13258        -2.09880
C         48.90495        43.84821        -1.20530
C         50.85760        29.47053        -1.70443
C         51.92332        31.59400        -2.78830
C         51.16347        30.89121        -1.71510
C         51.82677        32.87085        -2.70514
C         50.89298        33.72978        -2.16529
C         52.31199        35.74823        -1.37421
C         51.20151        34.80014        -1.20559
C         52.42550        36.98414        -1.51488
C         51.34932        37.93591        -1.49767
C         51.88556        39.94286        -3.05487
C         51.11493        38.96286        -2.38064
C         51.76194        41.16433        -3.31202
C         50.88469        42.24356        -3.29647
C         50.91026        43.50387        -2.67244
O         34.96946        36.68719         1.65179
O         31.84727        30.85704        -0.42805
O         37.12647        41.29907         1.71641
O         48.56979        41.42787         1.09314
O         39.69972        33.46616         2.48514
O         34.12028        43.64432        -0.22685
O         37.47847        42.56625        -1.86973
O         49.66734        39.10319         0.65713
O         48.45060        44.92373        -0.52890
O         41.68823        44.21108         2.96604
O         44.85550        40.05527         2.71228
O         39.40779        42.35891         2.05628
O         45.94723        36.33711         2.28481
O         47.28967        38.84266         2.12456
O         44.13188        43.02813         3.05276
O         51.09006        31.55956        -0.43737
O         42.74418        32.54281         2.85143
O         46.15149        32.34913         1.81187
O         42.40022        28.97832         3.12925
O         32.95516        41.84237        -3.20629
O         43.25478        37.58027         2.57667
O         43.15642        41.13107        -0.10753
O         49.73594        39.27324        -2.62035
O         41.47653        46.59791         3.01062
O         44.17462        34.57453         2.55445
O         38.22945        25.99832         1.69073
O         35.87751        29.31543        -1.66610
O         49.49697        41.84174        -3.38181
O         36.52886        30.11913         1.23150
O         42.30134        26.26664        -0.40637
O         46.15165        28.68525        -1.39959
O         46.53736        42.38936         2.17206
O         32.99763        35.35449         1.15009
O         45.65989        36.00804        -1.28253
O         38.96028        45.10261        -1.96318
O         45.85201        45.52626         2.79714
O         40.26969        27.29713         2.66604
O         32.69505        39.39590        -2.57842
O         33.77898        37.41995        -1.59506
O         47.88581        34.73946        -2.23859
O         49.76839        36.32974        -2.84213
H         49.10580        35.73467        -3.27049
O         30.58034        34.80705         0.42680
H         31.13785        34.51098         1.18189
O         48.01114        29.78341        -2.72844
H         47.71722        28.96286        -3.17601
O         44.67243        30.58181         3.04262
H         44.97746        31.45256         3.38389
O         51.00860        34.32991         0.08499
H         51.17046        35.06806         0.72042
O         36.82996        35.59074        -1.27136
H         36.11107        35.12360        -1.78245
O         38.56354        29.50179         2.79512
H         38.66900        28.71256         3.37029
O         41.59137        35.16486         2.74191
H         42.00821        35.99218         3.07565
O         36.01071        44.23723        -3.32572
H         36.92251        44.47202        -3.59741
O         42.77831        26.53284         3.22768
H         42.32453        27.25640         3.72638
O         41.83820        38.14559        -0.74975
H         41.01803        38.50019        -1.17948
O         34.74866        40.69334         1.38398
H         35.31617        40.22738         2.04794
O         38.57902        32.01008        -1.08484
H         39.55434        32.11141        -1.07998
O         50.74026        36.82889         0.56371
H         50.80350        37.61587         1.15325
O         34.11054        30.29418         1.14553
H         33.90986        31.08769         1.69655
O         37.33425        32.39724         2.26929
H         38.17900        32.21229         2.75105
O         36.90276        39.38976        -1.35309
H         36.77529        40.22652        -1.85706
O         39.06225        46.10788         1.85039
H         39.42793        46.05753         2.76244
O         43.32890        29.56716        -0.18642
H         43.94667        30.03530        -0.81565
O         49.01710        32.56931        -3.21859
H         48.43565        33.28729        -3.55184
O         36.34884        38.68513         2.16059
H         36.02404        37.90623         2.66737
O         37.54927        35.78996         2.33596
H         36.61760        36.04534         2.53639
O         40.95481        31.00335         3.31898
H         41.68980        30.78338         3.93172
O         49.03097        30.46604         0.69255
H         49.99146        30.65118         0.82848
O         42.90575        35.78558        -0.65000
H         42.50886        36.59384        -1.06815
O         34.69174        34.15911        -1.85312
H         34.97067        33.32906        -2.31571
O         38.73557        39.45814         2.70321
H         38.32094        40.28967         3.02885
O         41.61646        33.49994        -0.57104
H         42.20763        34.20922        -0.93876
O         39.34775        38.53068        -0.81158
H         38.47847        38.69852        -1.26770
O         45.22650        31.06197        -1.39834
H         45.67898        30.63703        -2.16182
O         40.67258        46.89571        -1.32901
H         40.33508        47.31902        -2.14540
O         40.35759        37.57259         2.59126
H         39.50918        37.23651         2.95760
O         30.83846        38.45733         0.41316
H         30.43360        37.64365         0.78088
O         34.68103        32.81225         1.59828
H         35.40026        32.59194         2.23582
O         41.32380        44.57535        -0.60802
H         40.76246        44.80926        -1.38971
O         44.00616        47.06379         3.83815
H         44.76959        46.50978         4.11760
O         40.76944        49.13172         2.92672
H         41.39542        48.78057         3.59602
O         45.17624        33.61336        -1.44459
H         45.15323        34.52547        -1.86919
O         39.28968        34.97464        -0.80891
H         38.49855        35.29962        -1.31725
O         35.79013        31.89714        -1.78378
H         36.18116        31.08063        -2.17548
