         720
 CSIRO Nanostructure Databank - Neutral Graphene Oxide Data Set
C         23.05836        27.62813         1.77843
C         23.04789        28.97258         1.47147
C         23.06910        31.98016         1.69003
C         23.16260        33.35461         1.90743
C         23.24669        36.24847         2.38388
C         23.20480        37.52194         1.90068
C         23.18651        40.47080         1.18400
C         23.11397        41.72989         0.63227
C         22.78266        44.46514        -0.39367
C         22.84217        45.80922        -0.33245
C         25.46430        25.14445         3.10462
C         24.27927        25.66232         2.61887
C         25.52096        27.63045         1.79152
C         24.28457        26.95411         2.02998
C         25.49013        29.01118         1.44815
C         24.25740        29.69926         1.35046
C         25.54831        31.89093         1.23974
C         24.22035        31.18143         1.24405
C         25.65527        33.24487         1.92648
C         24.38025        34.03713         1.99561
C         25.67366        36.16302         1.77325
C         24.52019        35.46783         2.47059
C         25.59591        37.50186         1.34525
C         24.36942        38.19777         1.41363
C         25.40807        40.14511         0.01660
C         24.21330        39.52764         0.76680
C         25.35376        41.57975        -0.34417
C         24.13815        42.28870        -0.17972
C         25.21910        44.40716        -1.06734
C         23.91115        43.61083        -0.92135
C         25.28086        45.85916        -0.75471
C         24.07429        46.55876        -0.54167
C         25.29544        48.65350        -0.67233
C         24.09989        47.96345        -0.48938
C         28.64685        23.22192         2.78784
C         28.64344        24.61480         2.66177
C         26.67674        25.81655         2.85377
C         28.04538        27.57812         1.64820
C         26.78139        26.98194         2.07082
C         28.01915        28.93523         1.29585
C         26.76641        29.69762         1.33521
C         28.01772        31.79625         0.96644
C         26.77981        31.07127         1.26379
C         28.03629        33.29533         0.99557
C         26.85544        34.03446         1.46944
C         28.09187        36.09806         1.07810
C         26.87932        35.40819         1.52889
C         28.05408        37.40398         0.67923
C         26.87186        38.26998         1.01743
C         27.84104        40.10259        -0.36519
C         26.71972        39.47814         0.11712
C         27.79680        41.50673        -0.78492
C         26.54082        42.19728        -0.80727
C         27.75193        44.41627        -0.84308
C         26.51118        43.65596        -1.09299
C         27.75494        45.76540        -0.62182
C         26.52123        46.55007        -0.70613
C         27.77912        48.76258        -0.84523
C         26.53015        47.97958        -0.76481
C         27.83868        50.05934        -0.19736
C         30.48377        23.14402         1.21233
C         29.54437        22.48872         2.02446
C         30.49191        24.57145         1.13195
C         29.47418        25.32623         1.78745
C         30.51040        27.44024         0.92050
C         29.42712        26.86519         1.81540
C         30.34504        28.82798         0.34704
C         29.23671        29.65369         0.95899
C         30.49123        31.81814         0.76580
C         29.28319        31.04697         0.91892
C         30.54979        33.21609         0.88003
C         29.33799        33.99104         1.01982
C         30.62677        36.14724         1.09014
C         29.34225        35.36119         0.99730
C         30.57631        37.46687         0.37088
C         29.21210        37.88297        -0.16945
C         30.40292        40.11164        -0.68377
C         29.11865        39.35420        -0.53272
C         30.29098        41.59414        -0.63313
C         28.99954        42.22434        -0.88223
C         30.27733        44.45369        -1.05623
C         28.99490        43.68164        -1.25734
C         30.28187        45.79276        -0.84367
C         29.06933        46.33295        -0.13649
C         30.25946        48.86154        -1.15050
C         28.93227        48.32026        -1.49024
C         30.22562        50.31176        -0.76498
C         28.93826        50.84546        -0.27535
C         32.80001        20.22633         0.38106
C         31.67271        20.89018         0.75221
C         32.75443        23.06859        -0.00051
C         31.49643        22.32774         0.49238
C         32.77460        24.53528         0.19928
C         31.66401        25.25787         0.59428
C         32.84791        27.45889         0.16700
C         31.64135        26.73084         0.55923
C         32.92249        28.84555         0.19653
C         31.65190        29.59711         0.19083
C         33.02797        31.70649         0.66790
C         31.70891        31.07607         0.39086
C         33.05975        33.20945         0.79316
C         31.79488        33.95704         0.77083
C         33.10718        36.06058         0.61677
C         31.85521        35.34344         0.74566
C         33.07608        37.50132         0.36979
C         31.75858        38.14156         0.12468
C         32.88605        40.24479        -0.60648
C         31.71919        39.49485        -0.38283
C         32.81227        41.56566        -1.10641
C         31.58706        42.34079        -0.93731
C         32.77219        44.47042        -0.87213
C         31.54285        43.75524        -1.48259
C         32.77653        45.95808        -1.06368
C         31.46296        46.62338        -1.38969
C         32.69347        48.72015        -0.57285
C         31.41502        48.11549        -1.07970
C         32.71634        50.15157        -0.15057
C         31.49886        51.00095        -0.34794
C         32.68996        52.79704         0.81486
C         31.51467        52.28401         0.38438
C         35.25451        18.69990        -0.51653
C         35.25399        20.14552        -0.28476
C         33.99630        20.90576        -0.07084
C         35.31862        22.99700        -0.38532
C         34.00062        22.28637        -0.13885
C         35.28288        24.44089         0.04303
C         34.05369        25.20503        -0.11566
C         35.35942        27.43816        -0.02062
C         34.08677        26.72231        -0.12348
C         35.39663        28.84916        -0.05432
C         34.16430        29.57709         0.07696
C         35.46571        31.69904         0.21193
C         34.24112        30.97863         0.26284
C         35.47440        33.12800         0.36113
C         34.32523        33.91332         0.54518
C         35.61840        36.08369         0.67709
C         34.33097        35.35130         0.58863
C         35.58525        37.64648         0.43551
C         34.24591        38.21601         0.14956
C         35.38152        40.15886        -1.05346
C         34.23112        39.70100        -0.15694
C         35.30860        41.55485        -1.58186
C         34.02368        42.30523        -1.50580
C         35.33559        44.46872        -0.97547
C         34.04140        43.79710        -1.36913
C         35.23569        45.95658        -1.08454
C         34.00203        46.64511        -1.02278
C         35.22830        48.77562        -0.69831
C         34.00785        48.08594        -0.85997
C         35.25057        50.12917        -0.15599
C         34.01170        50.83967         0.09109
C         35.19175        52.72805         1.15990
C         33.95827        52.11723         0.62796
C         35.27465        54.18130         1.41943
C         37.70453        18.68242        -0.99825
C         36.38080        17.99235        -0.76179
C         37.72920        20.02238        -0.27872
C         36.46097        20.78895        -0.18369
C         37.80942        22.94328         0.10569
C         36.46688        22.23045         0.29802
C         37.77030        24.40148        -0.23370
C         36.53647        25.13598         0.19036
C         37.85988        27.32585        -0.26251
C         36.58296        26.67651         0.14196
C         37.87641        28.81527        -0.35690
C         36.62766        29.56270        -0.12746
C         37.93711        31.63872        -0.30653
C         36.69057        30.97171        -0.05671
C         38.04344        33.06593         0.01597
C         36.76836        33.81549         0.39303
C         38.13092        35.76362         0.51526
C         36.84153        35.27565         0.44179
C         38.09358        37.90274         0.17631
C         36.80264        38.37727        -0.06470
C         37.89711        40.23439        -1.29062
C         36.72662        39.57921        -0.83366
C         37.87249        41.61814        -1.86934
C         36.55858        42.35187        -1.85892
C         37.74867        44.51063        -1.46804
C         36.57889        43.82728        -1.58051
C         37.74093        45.98270        -1.14329
C         36.43845        46.72067        -1.55247
C         37.73586        48.76573        -0.80533
C         36.48269        48.12957        -0.98404
C         37.74069        50.12140        -0.25834
C         36.47748        50.73313         0.11689
C         37.77702        52.74478         1.02151
C         36.49501        51.98296         0.89910
C         37.75719        54.18504         1.46350
C         36.43754        54.83849         1.58956
C         40.23866        15.79606        -0.73930
C         39.02587        16.48793        -0.72375
C         40.22960        18.60368        -0.81149
C         38.98709        17.88731        -0.75194
C         40.23914        20.01489        -0.78763
C         39.06401        20.73382        -0.27739
C         40.28673        22.98934        -0.63141
C         39.10023        22.22928        -0.14922
C         40.34034        24.36088        -0.51670
C         39.06649        25.11575        -0.42398
C         40.44423        27.27873        -0.15191
C         39.13439        26.56489        -0.06207
C         40.47440        28.79239        -0.18939
C         39.17266        29.53702        -0.20050
C         40.36838        31.62414        -0.87876
C         39.16071        30.96768        -0.53679
C         40.20008        33.08730        -1.32522
C         39.20233        33.82263        -0.45355
C         40.42205        35.99869        -0.57615
C         39.26248        35.17204        -0.17158
C         40.39125        37.45197        -0.69735
C         39.24674        38.30196        -0.55398
C         40.39081        40.30694        -1.42983
C         39.16559        39.60359        -1.15883
C         40.41719        41.72956        -1.53773
C         39.17036        42.47346        -1.94222
C         40.31695        44.64874        -1.37123
C         39.05842        43.80340        -1.17156
C         40.28159        45.98617        -1.57677
C         38.96088        46.72728        -1.73025
C         40.23393        48.78840        -0.98504
C         38.99524        48.12178        -1.11233
C         40.16952        50.23686        -0.69583
C         38.93252        50.82039        -0.14913
C         40.25773        52.83681         0.74866
C         38.93834        52.31050         0.14173
C         40.20179        54.35192         0.89560
C         38.98976        55.00008         1.24110
C         40.14233        57.14243         1.30388
C         38.97724        56.39288         1.42823
C         42.72100        15.78132        -0.92430
C         41.47415        16.48091        -0.86436
C         42.72894        18.60315        -1.06762
C         41.48078        17.89917        -0.92848
C         42.74050        20.02362        -1.17477
C         41.45102        20.73533        -1.18246
C         42.75898        22.94182        -1.09902
C         41.45943        22.25506        -1.13833
C         42.78015        24.35659        -0.94827
C         41.57159        25.10567        -0.71216
C         42.81113        27.24031        -0.89777
C         41.61871        26.51002        -0.61657
C         42.81691        28.68641        -1.00544
C         41.64966        29.49743        -0.74654
C         42.72914        31.52435        -1.84563
C         41.57880        30.87952        -1.05070
C         42.77657        33.08969        -1.70650
C         41.51653        33.86897        -1.41798
C         42.90166        35.98283        -0.79877
C         41.57407        35.28227        -0.93702
C         42.86762        37.37400        -1.39921
C         41.54376        38.11285        -1.34186
C         42.83364        40.27569        -1.40368
C         41.60289        39.58950        -1.37326
C         42.85082        41.71155        -1.38826
C         41.61097        42.43251        -1.42293
C         42.83906        44.62485        -1.55983
C         41.61362        43.91752        -1.05452
C         42.82541        46.04399        -1.89956
C         41.50139        46.82632        -1.96248
C         42.72944        48.91907        -1.12514
C         41.51363        48.19606        -1.26840
C         42.74602        50.26162        -0.67311
C         41.48015        50.99447        -0.55891
C         42.66770        53.02278         0.11498
C         41.48136        52.34026         0.02148
C         42.61689        54.52790         0.12886
C         41.36905        55.11374         0.74152
C         42.58353        57.27066         0.85943
C         41.35017        56.51355         0.95555
C         43.91147        16.45667        -1.04929
C         45.19638        18.60630        -1.31762
C         43.95951        17.88202        -1.13542
C         45.17726        20.01750        -1.39291
C         43.95487        20.73898        -1.28949
C         45.18219        22.90810        -1.14245
C         43.95197        22.20594        -1.22941
C         45.22849        24.31177        -1.12678
C         44.01068        25.04853        -1.03731
C         45.21184        27.15534        -1.37965
C         44.01333        26.48570        -1.06706
C         45.11312        28.50339        -1.71517
C         44.00389        29.32036        -1.43418
C         45.40637        31.54356        -1.32412
C         44.09247        30.80286        -1.63013
C         45.38110        33.06098        -1.31344
C         44.09416        33.80843        -1.56957
C         45.30735        35.95020        -1.41626
C         44.12775        35.25969        -1.28634
C         45.34355        37.40086        -1.22443
C         44.10642        38.13818        -1.30809
C         45.28025        40.27920        -1.12870
C         44.07721        39.55293        -1.31827
C         45.30488        41.69129        -1.22565
C         44.08683        42.40400        -1.40275
C         45.40947        44.63227        -1.62243
C         44.07651        43.86382        -1.67507
C         45.37514        46.10519        -1.35972
C         44.14758        46.84486        -1.76381
C         45.28048        48.96931        -0.85799
C         44.07771        48.38714        -1.62129
C         45.22328        50.22662        -0.32966
C         43.95251        50.95573        -0.30985
C         45.09105        53.02671         0.63520
C         43.91389        52.32280         0.00419
C         45.08762        54.53901         0.51969
C         43.89118        55.22806         0.52618
C         43.79084        56.66076         0.68749
C         47.67717        18.62826        -1.42391
C         46.46890        17.94322        -1.38046
C         47.75365        20.03551        -1.48445
C         46.45090        20.77879        -1.72885
C         47.69792        22.85331        -0.80286
C         46.43116        22.12713        -1.04986
C         47.64908        24.33422        -0.72952
C         46.50350        25.01535        -1.03291
C         47.51452        27.19201        -0.28994
C         46.57891        26.49792        -1.35993
C         47.71374        28.69797        -0.38994
C         46.97654        29.54191        -1.16467
C         47.38334        31.37460         0.29528
C         46.63373        30.88932        -0.73814
C         47.44011        33.51030         0.12023
C         46.50336        33.88241        -0.82490
C         47.91638        35.92173        -1.19253
C         46.61202        35.21803        -1.42667
C         47.89571        37.44368        -1.32607
C         46.53850        38.06347        -1.02927
C         47.76899        40.25596        -0.57753
C         46.48509        39.50975        -0.77016
C         47.73312        41.69941        -0.84324
C         46.57930        42.38506        -1.11441
C         47.60092        44.54872        -0.33562
C         46.72325        43.87357        -1.41127
C         47.75532        46.01572        -0.70126
C         46.50358        46.76983        -0.95771
C         47.80311        48.89548        -0.38274
C         46.61624        48.27612        -1.12135
C         47.76413        50.39726        -0.27679
C         46.43836        50.86506         0.34471
C         47.57721        53.09135         0.53428
C         46.41599        52.37938         0.35692
C         47.53444        54.53790         0.61142
C         46.35584        55.21815         0.59218
C         50.25668        20.17444        -1.50794
C         48.99053        20.75681        -1.42599
C         50.20157        22.84961        -0.66331
C         48.97903        22.27513        -1.37500
C         50.14668        24.25809        -0.15763
C         48.81813        25.00832        -0.03954
C         50.10167        27.24292         0.13162
C         48.86911        26.49998        -0.30753
C         50.01569        28.64585         0.56549
C         48.73428        29.29129         0.51450
C         49.91359        31.63526         0.76924
C         48.68510        30.81588         0.74304
C         49.86174        33.17919         0.94117
C         48.78387        33.96208         0.16162
C         50.16832        35.96391        -0.09107
C         49.00602        35.25040        -0.39997
C         50.23656        37.38243        -0.33754
C         49.06732        38.10964        -0.66044
C         50.26346        40.23306        -0.61930
C         49.07457        39.54259        -0.63205
C         50.30296        41.69718        -0.98908
C         49.01566        42.39051        -0.56999
C         50.21593        44.62262        -0.37028
C         48.95329        43.83142        -0.25045
C         50.16942        45.97579         0.31103
C         48.99679        46.74774        -0.29673
C         50.12211        48.77394         0.68069
C         48.91293        48.20169        -0.03951
C         50.05913        50.27235         0.85924
C         48.93093        51.00712         0.47271
C         49.89638        53.02210         1.45526
C         48.84719        52.38938         0.76798
C         51.47922        20.90499        -1.33856
C         52.73282        22.87636        -0.26877
C         51.51947        22.22381        -0.94269
C         52.61976        24.40125        -0.13438
C         51.41512        25.03024        -0.04810
C         52.53311        27.21155         0.80291
C         51.30579        26.43194         0.47506
C         52.47093        28.70005         1.04961
C         51.16134        29.44342         1.02047
C         52.38083        31.66646         1.04293
C         51.14797        30.95977         0.93635
C         52.41363        33.11538         0.95426
C         51.23273        33.83187         0.78937
C         52.56941        36.00841         0.63811
C         51.21944        35.35049         0.81936
C         52.62265        37.39220         0.29888
C         51.45882        38.08145        -0.13492
C         52.71730        40.25721        -0.12166
C         51.56304        39.47814        -0.68786
C         52.66398        41.68396        -0.07929
C         51.52947        42.39469        -0.43893
C         52.71496        44.60607        -0.00057
C         51.50864        43.86652        -0.40337
C         52.69549        46.03671         0.00701
C         51.45587        46.76206         0.11963
C         52.65642        48.86723        -0.15047
C         51.42449        48.14948         0.12321
C         52.70983        50.21423        -0.61584
C         51.04124        50.91083         1.65632
C         50.99022        52.28620         1.91130
C         55.19783        23.14166        -0.51340
C         54.07473        22.47754        -0.83543
C         55.17371        24.41685         0.24492
C         53.85381        25.13608         0.29195
C         55.01159        27.36665         0.80029
C         53.81937        26.65889         0.20916
C         54.97786        28.72022         0.97775
C         53.71185        29.49747         0.61453
C         54.94527        31.66771         1.04763
C         53.66339        30.90135         1.34429
C         54.89183        33.13559         1.25044
C         53.70795        33.83603         1.09772
C         54.97817        36.01511         1.03357
C         53.74463        35.30040         0.97143
C         55.05322        37.41282         0.70986
C         53.86604        38.11095         0.36356
C         55.14018        40.23968         0.32795
C         53.89545        39.54018         0.21364
C         55.15109        41.68159         0.33129
C         53.84207        42.41311         0.53869
C         55.11460        44.60339         0.22901
C         53.89721        43.89391         0.20477
C         55.15266        46.01846         0.12917
C         53.91797        46.74603         0.06838
C         55.13561        48.90359        -0.04355
C         53.90769        48.18143        -0.01508
C         55.11900        50.26470        -0.33856
C         53.91823        50.91040        -0.67759
C         57.67203        24.51981         0.95629
C         56.43999        25.20304         0.47717
C         57.32083        27.19368         1.84592
C         56.30428        26.63849         0.86650
C         57.17884        28.68392         1.94862
C         56.17254        29.43878         1.42924
C         57.51175        31.71920         1.45922
C         56.24943        30.92539         1.22125
C         57.44290        33.09304         1.61796
C         56.14655        33.80552         1.65310
C         57.48001        36.06516         1.57575
C         56.16000        35.34156         1.57607
C         57.55648        37.35957         0.82594
C         56.29826        38.12615         0.68009
C         57.65390        40.20203         0.17689
C         56.35471        39.49763         0.38499
C         57.64464        41.70989         0.28900
C         56.32990        42.38212         0.37215
C         57.66594        44.58114         0.47473
C         56.36139        43.84176         0.20977
C         57.55122        46.03272         0.69641
C         56.38868        46.71542         0.29758
C         57.42963        48.83636         1.07555
C         56.47756        48.20488         0.07887
C         58.75761        25.24503         1.33256
C         59.83641        27.43991         1.14151
C         58.71109        26.69774         1.45891
C         59.96527        28.85560         1.00235
C         59.08081        29.77200         1.56475
C         59.85064        31.96136         0.66604
C         58.82027        31.12204         1.23329
C         59.82142        33.28260         0.93407
C         58.77423        33.81046         1.89249
C         60.04959        36.02983         1.57324
C         58.75471        35.33382         1.82893
C         60.10317        37.29822         1.13923
C         58.89244        38.00895         0.64885
C         59.76941        40.22604         1.51924
C         59.01302        39.51095         0.41636
C         59.75250        41.58073         1.61943
C         58.80661        42.41402         0.91296
C         59.78876        44.57635         1.72944
C         58.79103        43.81225         1.05451
C         59.70518        45.95855         1.85499
C         58.61388        46.71192         1.35420
C         58.46475        48.13251         1.59858
O         48.41150        29.88279         1.84404
O         38.19681        24.79245        -1.57340
O         37.13303        41.85293        -3.11233
O         35.80924        51.87557         2.18296
O         39.90239        26.79222         1.14016
O         56.78357        26.27410        -0.47305
O         31.67326        22.67095        -0.91281
O         51.83089        26.48430         1.84407
O         29.70258        39.58187        -1.86831
O         30.98950        51.14735        -1.71932
O         55.93363        34.64873         2.83766
O         42.04919        33.74827        -2.79305
O         33.11778        32.31119         1.99128
O         45.01179        33.52030        -2.66323
O         31.60914        30.51506        -0.97162
O         29.15827        46.99108         0.88707
O         57.74800        41.03122        -1.02451
O         47.06091        22.12145         0.28822
O         44.85657        44.22769        -2.89502
O         45.05621        31.11241        -2.67058
O         58.25371        29.29618         2.60214
O         41.21536        21.55606        -2.41274
O         32.52653        49.09479         0.86524
O         37.81403        27.96355        -1.57153
O         43.67045        46.40312        -3.05624
O         27.79990        25.32078         3.53378
O         57.28250        44.20846        -0.88350
O         58.06390        36.04107         2.92245
O         46.27953        29.05471        -2.27124
O         46.97985        39.86037         0.60171
O         47.60771        35.31965        -2.50711
O         40.68913        51.03329        -1.84437
O         50.07411        23.09984         0.78237
O         36.67834        25.94549         1.41189
O         38.04312        53.08363         2.41393
O         37.67916        33.25984         1.42658
O         53.63701        29.62091        -0.76425
O         42.04990        37.49160        -2.58872
O         49.02218        42.85622         0.84153
O         47.01271        32.50412         1.00548
O         25.86678        44.08453        -2.36747
O         50.89891        44.50895        -1.61922
O         54.38373        24.49111         1.48612
O         33.95992        43.22398        -2.67491
O         55.70551        31.26673        -0.12006
O         24.38214        39.37479        -0.69255
O         58.27283        37.27022        -0.46207
O         48.77890        46.35035        -1.68845
O         24.80409        31.78695         0.00617
O         38.33687        36.97424         1.18171
O         38.52407        20.06314         0.93564
O         38.72530        22.67982         1.21300
O         49.75924        26.98234        -1.32422
O         39.91260        29.33657         1.05194
O         35.68552        37.05529         1.76119
O         34.01516        25.95477        -1.41402
O         51.81906        28.99270         2.30556
O         35.10545        40.38935        -2.45805
O         27.81534        32.59417        -0.28891
O         31.05976        42.21850         0.43431
O         38.75092        46.87344        -3.15459
H         39.61258        47.15098        -3.55969
O         37.73780        19.02565        -2.42162
H         37.63286        18.20028        -2.93943
O         46.39027        21.05146        -3.16431
H         46.33893        20.19227        -3.63297
O         46.87036        48.49529        -2.54982
H         47.16421        49.43824        -2.62491
O         35.48459        44.18275         0.47356
H         36.24759        44.72600         0.78910
O         39.40864        42.83359        -3.31853
H         38.57312        42.65571        -3.81746
O         29.09641        37.11774        -1.40891
H         29.47390        37.68324        -2.12420
O         46.42535        50.43017         1.72833
H         45.72323        50.95719         2.18140
O         41.31981        47.15997        -3.37077
H         42.22363        47.33669        -3.73564
O         28.87266        43.69805        -2.73294
H         28.00013        43.31134        -2.96757
O         53.73868        30.67150         2.76716
H         52.95296        30.13102         3.03775
O         59.83924        39.65584        -0.76113
H         59.40803        40.34397        -1.32515
O         59.19061        33.45098         3.23855
H         58.62485        33.97044         3.85170
O         42.49151        54.84930        -1.31186
H         42.44659        55.82669        -1.38921
O         46.93700        44.47492         0.93229
H         47.39092        43.77043         1.45429
O         44.19658        48.90687        -2.97122
H         45.11034        48.67881        -3.27571
O         42.39040        31.25528        -3.22052
H         43.15763        31.54004        -3.76574
O         46.87124        27.01985         0.98627
H         47.28696        26.25847         1.46310
O         57.00233        26.61332         3.14270
H         57.53003        27.08930         3.81819
O         44.89577        52.76911         2.09804
H         45.52745        53.34906         2.57668
O         43.12108        36.15333         0.64554
H         42.29745        36.50720         1.04507
O         49.47796        33.34323         2.36031
H         50.01994        32.72391         2.89554
O         52.04967        50.15549         2.19987
H         52.65413        50.73257         2.70815
O         23.46701        43.21613        -2.24762
H         24.27213        43.18735        -2.81727
O         50.36432        41.73499        -2.43689
H         51.09340        41.12787        -2.71037
O         53.76322        26.97983        -1.20231
H         53.80068        27.98518        -1.27992
O         34.51856        40.37069         1.11304
H         33.86479        40.06574         1.77765
O         31.57864        43.71270        -2.90708
H         31.54448        44.64471        -3.23546
O         47.79585        50.92068        -1.64385
H         48.72601        50.88491        -1.95320
O         36.18592        22.22358         1.71112
H         37.03341        22.01221         2.16665
O         32.70715        44.28164         0.56698
H         33.62072        44.37520         0.93006
O         25.97000        32.90958         3.32792
H         25.75963        33.71470         3.86643
O         29.85008        28.57742        -1.00944
H         30.11600        29.35723        -1.55194
O         41.69480        43.91829         0.41673
H         40.82943        43.55766         0.73531
O         47.46175        43.98834        -2.64113
H         46.82789        43.88483        -3.38504
O         40.45690        52.24070         2.05913
H         39.69656        52.52254         2.62950
O         28.85858        47.38112        -2.48325
H         27.92457        47.11886        -2.62964
O         29.84205        27.23899         3.17176
H         29.21330        26.79702         3.78838
O         50.03389        48.27219         2.06245
H         50.81059        48.64102         2.54227
O         52.69583        22.34572         1.08473
H         51.83572        22.62687         1.47875
O         38.74417        52.96642        -1.13889
H         39.39712        52.56068        -1.76242
O         48.46073        24.93394         1.37839
H         48.59930        23.99693         1.65879
O         39.60843        33.03283        -2.64565
H         40.36022        32.96792        -3.28331
O         53.62771        42.36172         1.99284
H         52.72653        42.70270         2.17781
O         27.23398        38.89762         2.31733
H         27.59981        38.19303         2.89490
O         57.12059        48.38742        -1.23510
H         57.90530        47.79913        -1.26265
O         30.77639        36.48743         2.52243
H         31.08860        35.68240         2.98869
O         47.19736        26.56539        -2.65202
H         47.13618        27.49596        -2.97024
O         38.97927        43.47867         0.25140
H         38.66082        44.29582         0.70667
O         35.60530        22.98078        -1.80997
H         34.96800        23.57544        -2.26133
O         49.93266        45.67448         1.69913
H         49.85878        46.54069         2.17691
O         49.03760        22.76661        -2.73984
H         49.72730        22.26516        -3.22232
O         37.81774        46.02425         0.32159
H         37.84271        46.96691         0.60375
O         31.37850        46.48263        -2.85199
H         30.49120        46.81317        -3.13058
O         24.89942        35.38058         3.92853
H         24.95253        36.29912         4.27111
O         36.22209        46.78898        -2.98266
H         37.06970        47.04852        -3.42072
O         50.81653        35.72561         2.18540
H         50.13821        35.06638         2.48107
O         51.85012        39.34457        -2.15251
H         51.18964        38.71509        -2.51816
O         51.57254        50.80461        -1.09522
H         51.78849        51.70346        -1.41439
O         48.10450        37.77490        -2.73998
H         47.83538        36.96598        -3.24741
H         22.11354        27.08083         1.90515
H         22.08790        29.48949         1.33629
H         22.09590        31.49146         1.84105
H         22.22914        33.89814         2.11933
H         22.33074        35.79962         2.79333
H         22.24280        38.05459         1.87909
H         22.47561        40.17918         1.97022
H         22.26419        42.36782         0.91452
H         21.81340        43.96973        -0.23833
H         21.94424        46.38503        -0.06054
H         25.48260        24.21370         3.68637
H         23.32566        25.14218         2.78414
H         25.27216        49.75049        -0.72408
H         23.16050        48.51826        -0.35536
H         27.95289        22.73211         3.48192
H         26.92778        50.44766         0.27817
H         29.53516        21.39403         2.09593
H         28.90680        51.87147         0.11268
H         32.85212        19.14336         0.56263
H         30.86621        20.32491         1.23989
H         32.68632        53.76274         1.33821
H         30.58497        52.85450         0.51217
H         34.29522        18.16435        -0.46258
H         34.33897        54.75724         1.45838
H         36.30717        16.90722        -0.93138
H         36.40418        55.92425         1.75710
H         40.23876        14.69786        -0.68853
H         38.08961        15.91268        -0.68319
H         40.12142        58.22792         1.47505
H         38.04565        56.90799         1.69662
H         42.71546        14.68328        -0.86663
H         42.53459        58.35910         1.00963
H         44.84402        15.87786        -1.09072
H         44.70392        57.27101         0.72995
H         48.60548        18.04106        -1.36266
H         46.50445        16.84729        -1.32110
H         48.47758        55.10024         0.63829
H         46.37657        56.31638         0.58782
H         50.34604        19.09071        -1.67302
H         49.83753        54.09033         1.70146
H         52.41727        20.34069        -1.44920
H         51.77985        52.76588         2.50634
H         56.16903        22.80726        -0.90998
H         54.13995        21.56691        -1.44980
H         56.06349        50.82248        -0.39857
H         53.92923        51.95136        -1.03079
H         57.73075        23.42334         0.88905
H         57.34796        49.91691         1.26912
H         59.71704        24.73563         1.51647
H         60.70221        26.85675         0.78413
H         60.75509        29.22147         0.32970
H         60.66486        31.50561         0.08384
H         60.59391        33.95336         0.53417
H         60.97099        35.52138         1.89380
H         61.07115        37.80981         1.03821
H         60.49441        39.65428         2.11732
H         60.44571        42.06722         2.32179
H         60.66005        44.06413         2.16038
H         60.50581        46.49062         2.38974
H         59.20272        48.62873         2.24757
