         276
 CSIRO Nanostructure Databank - Neutral Graphene Oxide Data Set
C        -10.96935         0.62274         0.35835
C         -9.84951         1.37219         0.98645
C         -8.60849         0.57933         1.23930
C         -7.27512         1.26210         1.15310
C         -6.04118         0.47646         0.82803
C         -4.73813         1.22984         0.56511
C         -3.74859         0.69343        -0.42970
C         -2.49584         1.46304        -0.72956
C         -1.25527         0.68768        -1.10188
C          0.06173         1.42392        -1.05970
C          1.31080         0.73215        -1.50899
C          2.60178         1.50750        -1.37920
C          3.74926         0.79559        -0.74084
C          5.01932         1.53620        -0.49426
C          6.31777         0.78423        -0.46505
C          7.44137         1.48810         0.24509
C          8.78728         0.81282         0.25433
C          9.92887         1.59266         0.82519
C         11.00774         0.79057         1.45754
C         -9.73004         2.86363         0.95152
C         -8.53641         3.50080         0.98947
C         -7.29606         2.70590         0.57044
C         -5.95517         3.47493         0.71821
C         -4.66569         2.70033         0.85843
C         -3.37504         3.46081         0.60174
C         -2.23030         2.79102        -0.05004
C         -1.14813         3.63483        -0.67221
C          0.18872         2.90615        -0.59071
C          1.41626         3.75081        -1.01941
C          2.64413         3.00568        -1.45938
C          3.95794         3.74698        -1.30490
C          5.15378         2.99808        -0.83129
C          6.19602         3.75054        -0.05594
C          7.36666         2.96869         0.48691
C          8.59849         3.71290         0.87823
C          9.73802         3.03620         1.16108
C         -8.50028         4.99690         1.29146
C         -7.18856         5.73676         1.02630
C         -5.92494         4.96661         0.83737
C         -4.61886         5.65946         1.14958
C         -3.34275         4.93785         0.85414
C         -2.10453         5.72633         0.46454
C         -1.17859         5.13269        -0.59244
C          0.03050         5.95009        -1.19932
C          1.38878         5.25391        -1.07244
C          2.63586         6.00572        -1.53118
C          3.94019         5.26050        -1.41137
C          5.31418         5.94455        -1.23356
C          6.22937         5.23605        -0.19650
C          7.55180         5.97599         0.17811
C          8.40619         5.18279         1.21052
C         -7.13605         7.08626         0.94733
C         -5.85874         7.78574         0.52017
C         -4.63115         7.16662         1.17572
C         -3.33413         7.92172         1.23253
C         -2.06248         7.19465         0.79596
C         -1.04010         8.03474         0.06785
C          0.04098         7.42399        -0.77038
C          1.30223         8.21561        -1.04492
C          2.59487         7.52015        -1.43365
C          3.92615         8.24025        -1.26317
C          5.19290         7.46639        -0.94800
C          6.22792         8.15185         0.02613
C          7.10833         7.28331         0.76685
C         -5.84861         9.29087         0.61661
C         -4.73269        10.01932         0.76210
C         -3.36550         9.49867         1.16093
C         -2.21065        10.02737         0.37721
C         -0.86985         9.44273         0.71474
C          0.33249        10.17470         0.17392
C          1.33907         9.61222        -0.52079
C          2.50752        10.45356        -0.98165
C          3.85690         9.70917        -0.89182
C          4.84253        10.21327         0.09018
C          5.86017         9.47523         0.57293
C        -11.01297        -0.72331         0.34440
C        -10.02854        -1.55676         1.14347
C         -8.63064        -0.92023         1.11664
C         -7.41141        -1.68003         0.68833
C         -6.00584        -1.03910         0.58847
C         -5.16489        -1.49036        -0.61266
C         -3.86894        -0.74060        -0.91294
C         -2.67196        -1.45571        -1.49395
C         -1.33875        -0.74394        -1.60769
C         -0.05315        -1.51368        -1.60524
C          1.28138        -0.76489        -1.50131
C          2.38218        -1.47819        -0.73066
C          3.72360        -0.72101        -0.60264
C          5.03019        -1.44986        -0.52710
C          6.34746        -0.70898        -0.55931
C          7.42737        -1.35298         0.28138
C          8.82309        -0.73977         0.22065
C          9.77219        -1.36513         1.24292
C         10.92731        -0.55261         1.62111
C         -9.99601        -3.04053         0.81905
C         -8.88864        -3.74993         0.51200
C         -7.65150        -3.03442         0.07565
C         -6.54718        -3.73421        -0.65831
C         -5.27375        -2.94330        -1.01486
C         -3.99737        -3.69454        -1.39257
C         -2.69291        -2.96625        -1.64421
C         -1.35622        -3.72572        -1.67795
C         -0.11389        -2.97986        -1.16281
C          1.22650        -3.69776        -1.41101
C          2.50305        -2.92994        -1.19714
C          3.77918        -3.67531        -0.87183
C          5.06515        -2.94257        -0.64426
C          6.25757        -3.61362         0.02718
C          7.26894        -2.76367         0.74724
C          8.34272        -3.45783         1.61031
C          9.64790        -2.67285         1.62059
C         -8.94823        -5.24251         0.22873
C         -7.56852        -5.88526         0.27146
C         -6.55570        -5.28886        -0.73104
C         -5.12435        -5.79302        -0.35607
C         -3.88135        -5.07126        -0.76703
C         -2.52142        -5.83096        -0.70766
C         -1.35304        -5.21858        -1.51353
C         -0.04042        -5.97104        -1.35829
C          1.26633        -5.20264        -1.22254
C          2.43784        -5.84616        -0.52574
C          3.63593        -5.00341        -0.17749
C          4.84610        -5.69507         0.35356
C          6.21215        -5.07279         0.32661
C          7.31383        -5.71384         1.11110
C          8.38929        -4.97637         1.47243
C         -7.34597        -7.00243         0.98894
C         -5.98763        -7.66161         1.12459
C         -5.09239        -7.24668        -0.02581
C         -3.87163        -8.03553        -0.33974
C         -2.66167        -7.35633        -0.91894
C         -1.39587        -8.15201        -0.99361
C         -0.06336        -7.42774        -1.01069
C          1.03817        -7.98439        -0.13798
C          2.25681        -7.17466         0.18942
C          3.49719        -7.89858         0.68298
C          4.80064        -7.16907         0.65395
C          6.12741        -7.85195         0.37414
C          7.23266        -7.23667         1.29161
C         -6.00081        -9.17156         1.23747
C         -4.89802        -9.89631         1.00096
C         -3.57988        -9.27141         0.57681
C         -2.73810       -10.13494        -0.28361
C         -1.38951        -9.69334        -0.79145
C         -0.20933       -10.22936         0.06921
C          1.10043        -9.46908        -0.01306
C          2.27044       -10.10611         0.20711
C          3.49795        -9.43233         0.78702
C          4.83992       -10.02873         0.40490
C          6.00394        -9.35973         0.39449
O         -3.62139        -0.79214        -2.34969
O         -2.26995         2.82738         1.38287
O         -1.14934         8.07944        -1.37075
O          4.12334        -7.38525         1.92310
O          3.33377         5.57513        -2.72190
O          1.74069         8.11976        -2.44104
O         -0.70643        -1.14364        -2.84683
O         -5.72802        -1.86206        -1.87800
O          4.30402        -1.08868         0.69205
O         -9.45354         0.97645         2.36463
O         -1.74751         4.41259        -1.73880
O         -0.43275         0.64969         0.11217
O          6.79591        -4.58306        -0.92514
O         -7.64683        -3.12031        -1.38546
O          6.98423         1.99578         1.53512
O          5.55344         4.65759         0.93664
O          4.07171         1.35712         0.58820
O         -5.81348         4.33675        -0.48000
O          3.94262        -4.92973         1.23946
O          1.73035         4.60428         0.15800
O         -2.19395        -7.85157        -2.19120
O         -4.06058         7.59727         2.45027
O         -1.37300        -4.60853        -2.82577
O         -7.80159        -1.62536         2.10494
O          1.47655        -0.04779        -2.73621
O          1.98855        -3.18782        -2.53111
O          1.13850        -7.23474         1.12685
O         -6.42924         0.82945         2.21999
O          2.31515        -5.88031        -1.97227
O         -5.03521        -8.14072        -1.17708
O         -4.44489        -4.95772         0.60616
O         -6.84408        -5.71218        -1.99498
O          6.37013         8.13176        -1.43505
O          5.00308         3.27581        -2.23642
O         -3.81108         5.14055         2.22910
O          6.76332        -1.64086         1.55501
O         -7.47235         2.41475        -0.78945
O         -3.61543         1.56297        -1.62379
O          4.76541        -3.53988        -1.93102
O          9.41635        -1.19370        -0.95810
O          4.25761         9.28577        -2.22547
O         -3.54225        -3.46206        -2.72706
O          9.76499         1.39581        -0.63654
O         -4.32876         1.72672         1.87900
O          2.71588         2.21634        -2.66693
O          0.20756        -7.01469        -2.36709
O          6.68105         0.09568        -1.70357
O         -1.41126         6.22572         1.65489
O          2.54474        11.66854        -0.24593
H          2.97297        12.35695        -0.79260
O          3.34129        -9.77850         2.19708
H          3.76178        -9.04866         2.71184
O          6.00559         5.81963        -2.48238
H          5.34667         5.89371        -3.20918
O          7.91133        -3.33269         3.00195
H          7.48630        -2.44672         3.09162
O         -2.88121        -8.74368         1.71024
H         -2.04227        -9.25292         1.84483
O         -8.85511         5.18391         2.67345
H         -8.31512         4.58295         3.22690
O          6.96184        -7.55484         2.65455
H          6.09115        -7.17498         2.90069
O         -0.65345         9.25789         2.10975
H         -1.47703         9.51834         2.59938
O         -1.18476       -10.27081        -2.08626
H         -1.68154        -9.72634        -2.73944
O        -10.48225        -1.48977         2.52153
H         -9.68495        -1.50204         3.09437
O          8.32853         6.14063        -1.00609
H          7.80015         6.65449        -1.66320
O          6.43114        -7.48554        -0.99171
H          7.29978        -7.86149        -1.24371
O         -0.36151        -2.98441         0.26444
H          0.33488        -2.43597         0.71215
O         -0.60150       -10.19564         1.45267
H          0.20363       -10.19957         2.01307
O         -5.36270        -7.12544         2.32085
H         -5.88160        -7.41812         3.09809
O          0.41614         2.81419         0.83346
H         -0.23453         2.19194         1.23335
O         -0.14217         5.98327        -2.62023
H         -0.88678         6.58723        -2.83291
O         -9.85934        -5.88296         1.11492
H         -9.73890        -5.51372         2.01314
O         -5.24166        -1.58843         1.68928
H         -5.70633        -1.31490         2.51443
O          7.77594         5.27613         2.49222
H          6.93921         4.75749         2.45983
O         -3.17798         9.94704         2.53780
H         -3.72873         9.35299         3.10259
O         -2.02067        -5.69460         0.64045
H         -2.79081        -5.56002         1.24583
O          1.84310        -1.51896         0.62241
H          2.60268        -1.47111         1.25497
O         -5.67644         7.49521        -0.90275
H         -6.05507         6.61131        -1.10618
H         11.75361        -1.07532         2.12907
H         11.89542         1.32685         1.82685
H         10.60852         3.58247         1.55830
H          9.40099         5.68387         1.28912
H          7.21292         7.43460         1.85306
H          6.48228         9.86991         1.38953
H          4.61673        11.18887         0.54711
H          2.33967        10.68717        -2.06885
H          0.45146        11.22153         0.49394
H         -2.37632        10.31333        -0.67416
H         -4.81522        11.11734         0.74718
H         -6.80035         9.80507         0.41045
H         -8.05304         7.68412         1.06583
H         -9.30356         5.50279         0.69494
H        -10.65547         3.43317         1.13790
H        -11.73166         1.20465        -0.18142
H        -11.84189        -1.23734        -0.16452
H        -10.93477        -3.58654         1.00684
H         -9.33348        -5.38749        -0.81681
H         -8.16723        -7.40130         1.60955
H         -6.92956        -9.66870         1.55835
H         -4.92151       -10.98980         1.12598
H         -3.25671       -10.88706        -0.90204
H         -0.04182       -11.29803        -0.23754
H          2.26295       -11.20585         0.29169
H          4.86312       -11.12758         0.33009
H          6.93812        -9.92034         0.22615
H          8.22090        -7.69837         1.03449
H          9.23701        -5.47509         1.96886
H         10.42547        -3.08737         2.28516
