         630
 CSIRO Nanostructure Databank - Neutral Graphene Oxide Data Set
C         23.04453        27.36703        -0.63035
C         23.02469        28.74904        -0.62879
C         23.05941        31.69757        -0.40366
C         23.07758        33.12413        -0.35737
C         23.06755        36.00043         0.19783
C         23.07138        37.37044         0.37530
C         23.09573        40.28314         0.58680
C         23.10798        41.67328         0.63727
C         23.25542        44.53550         1.43463
C         23.33483        45.85506         1.70133
C         25.45555        24.54356        -0.22805
C         24.28715        25.23139        -0.43278
C         25.46212        27.38338        -0.20750
C         24.25554        26.66018        -0.42420
C         25.43589        28.80893        -0.23847
C         24.21597        29.49655        -0.44650
C         25.52126        31.66733        -0.69771
C         24.21324        30.95457        -0.45665
C         25.52148        33.14029        -0.33908
C         24.25673        33.84572        -0.28697
C         25.48162        36.00296        -0.07757
C         24.26787        35.29328        -0.06212
C         25.49494        37.40883         0.12136
C         24.27550        38.10984         0.32646
C         25.53215        40.25900         0.38704
C         24.29291        39.55404         0.45053
C         25.53735        41.69123         0.43219
C         24.30677        42.38794         0.56455
C         25.58386        44.56301         0.54466
C         24.23754        43.89213         0.48026
C         25.61406        45.96855         0.72422
C         24.46160        46.65179         1.23664
C         25.63426        48.76833         0.99234
C         24.49427        48.03509         1.37720
C         27.94147        23.07918         0.33384
C         27.91647        24.52662         0.28129
C         26.69148        25.22726         0.01260
C         27.89078        27.35149         0.28082
C         26.68430        26.65041         0.01919
C         27.84515        28.81003         0.42729
C         26.65477        29.56496         0.00518
C         27.96870        31.67087        -0.05860
C         26.72033        30.93303        -0.15983
C         27.98004        33.09949        -0.16761
C         26.72274        33.81432        -0.25109
C         28.00372        35.99123         0.03684
C         26.75989        35.30650        -0.47564
C         27.97029        37.37374         0.19507
C         26.74640        38.12312         0.15745
C         28.01706        40.25903         0.26996
C         26.76719        39.53635         0.28383
C         28.01154        41.69625         0.21282
C         26.77681        42.40549         0.29800
C         27.99123        44.57312         0.11204
C         26.77291        43.84688         0.31542
C         27.96765        45.97602         0.05604
C         26.80196        46.70405         0.42149
C         27.97521        48.92276         0.10637
C         26.78270        48.13419         0.52918
C         28.18718        50.30858         0.55742
C         30.29717        23.08828         1.03346
C         29.04666        22.39159         0.70447
C         30.36842        24.53453         0.74099
C         29.11903        25.23913         0.49712
C         30.36717        27.39403         0.42767
C         29.11359        26.66990         0.46242
C         30.38899        28.75147         0.20280
C         29.18037        29.55161         0.39644
C         30.43212        31.66023        -0.02946
C         29.18544        30.98140         0.07226
C         30.44015        33.08092        -0.06791
C         29.20356        33.80383        -0.07754
C         30.47116        35.89457         0.25556
C         29.23431        35.24581         0.07757
C         30.48212        37.32004         0.63609
C         29.19672        38.10253         0.56404
C         30.49053        40.24762         0.25610
C         29.24852        39.56689         0.34607
C         30.49631        41.68077         0.11595
C         29.24761        42.39583         0.12015
C         30.45078        44.52610        -0.01427
C         29.25046        43.83673         0.01820
C         30.44985        45.99737        -0.00314
C         29.19065        46.66659        -0.50211
C         30.50919        48.88692        -0.35350
C         29.20536        48.18183        -0.36535
C         30.52235        50.30275        -0.24020
C         29.34399        50.96505         0.27715
C         32.80346        20.19346         0.61363
C         31.65817        20.86551         0.83554
C         32.86075        23.08041         0.90660
C         31.62880        22.31269         1.14973
C         32.84527        24.45577         0.71478
C         31.59353        25.18188         0.69860
C         32.81053        27.14020        -0.28338
C         31.68570        26.69118         0.67286
C         32.86497        28.66290        -0.46114
C         31.60780        29.45596        -0.25151
C         32.87229        31.60342        -0.28715
C         31.66465        30.93456        -0.11959
C         32.90292        33.03520        -0.25069
C         31.68922        33.76438        -0.10798
C         32.94604        35.86641        -0.04253
C         31.71185        35.19350         0.03450
C         33.00842        37.30989         0.27775
C         31.76744        38.08397         0.58911
C         32.95772        40.23809         0.16973
C         31.75633        39.55578         0.34120
C         32.97078        41.66551        -0.04354
C         31.72652        42.36795         0.01283
C         32.91977        44.55678        -0.46097
C         31.77100        43.85369         0.24504
C         32.92675        45.91706        -0.57766
C         31.74114        46.72228        -0.20344
C         32.94267        48.86200        -0.67556
C         31.71247        48.17460        -0.49417
C         32.95225        50.29015        -0.70902
C         31.74474        51.00988        -0.46455
C         32.96296        53.10643        -0.76008
C         31.79356        52.43786        -0.49685
C         35.40683        18.73379         0.35258
C         35.38738        20.14484         0.47366
C         34.12112        20.82454         0.84617
C         35.38399        23.04957         0.65696
C         34.13334        22.34084         0.95849
C         35.35291        24.46405         0.55518
C         34.10588        25.17384         0.50719
C         35.32863        27.27975         0.14427
C         34.11910        26.53968         0.18378
C         35.32751        28.71725        -0.08227
C         34.14298        29.39126        -0.35114
C         35.39118        31.58666        -0.38341
C         34.12045        30.85490        -0.72727
C         35.38100        33.01416        -0.45137
C         34.14680        33.73496        -0.38530
C         35.39079        35.86480        -0.51961
C         34.15977        35.16614        -0.33719
C         35.40168        37.33689        -0.61071
C         34.17026        38.09596        -0.21866
C         35.48257        40.23146        -0.30255
C         34.29325        39.52010         0.30131
C         35.52948        41.72235        -0.10323
C         34.17079        42.34905        -0.33195
C         35.34528        44.42274        -1.33503
C         34.08822        43.73258        -0.85021
C         35.35324        45.92510        -1.46703
C         34.07128        46.67312        -1.14073
C         35.36592        48.80267        -1.07717
C         34.14698        48.12682        -0.88997
C         35.36782        50.22153        -1.14267
C         34.18103        50.97775        -0.97306
C         35.40477        53.14181        -1.20047
C         34.19284        52.42155        -0.99826
C         35.51207        54.54397        -1.09103
C         37.83470        18.73346         0.16669
C         36.59339        18.04601         0.22350
C         37.82693        20.16287         0.18263
C         36.58754        20.87116         0.37099
C         37.78951        23.05835         0.30934
C         36.58442        22.33142         0.45440
C         37.80725        24.46408         0.41685
C         36.57782        25.18210         0.44427
C         37.79885        27.33759         0.36013
C         36.56786        26.60721         0.33067
C         37.77171        28.75818         0.28907
C         36.57777        29.44328         0.02844
C         37.82839        31.60523        -0.12112
C         36.57577        30.88740        -0.13286
C         37.82702        32.99060        -0.45419
C         36.62037        33.72079        -0.53278
C         37.84162        35.90056        -0.70405
C         36.62160        35.16870        -0.62563
C         37.87029        37.33226        -0.61018
C         36.67129        38.07064        -0.57730
C         37.91954        40.19900        -0.74496
C         36.65891        39.51015        -0.55130
C         37.94717        41.64240        -0.89940
C         36.69290        42.39528        -0.81687
C         37.85545        44.43976        -1.65345
C         36.64101        43.70536        -1.21103
C         37.88259        45.95604        -1.59008
C         36.61704        46.68255        -1.34518
C         37.88134        48.78364        -1.22926
C         36.61567        48.06129        -1.24005
C         37.89912        50.17749        -1.32107
C         36.61869        50.88899        -1.52558
C         37.92779        53.08900        -1.47424
C         36.62785        52.40511        -1.56245
C         37.92299        54.49879        -1.51458
C         36.71778        55.20302        -1.33096
C         40.31072        15.89162         0.21263
C         39.13036        16.58073         0.17018
C         40.28336        18.74425        -0.06299
C         39.08176        18.02206         0.07433
C         40.27436        20.16772        -0.04023
C         39.06384        20.86475         0.07462
C         40.24020        23.02253         0.60734
C         39.06911        22.36731        -0.09305
C         40.27909        24.50517         0.57037
C         39.05924        25.20310         0.45787
C         40.28868        27.33672         0.48582
C         39.04558        26.62874         0.45802
C         40.30509        28.76829         0.47783
C         39.01337        29.52847         0.66883
C         40.29287        31.61472         0.05612
C         39.05282        30.92786         0.10480
C         40.34593        32.99350        -0.29988
C         39.10650        33.64552        -0.72641
C         40.37796        35.89679        -0.65220
C         39.11197        35.19878        -0.89101
C         40.36980        37.32277        -0.62620
C         39.12021        38.03669        -0.65328
C         40.39761        40.12274        -1.03480
C         39.10743        39.45005        -0.79270
C         40.42942        41.60774        -1.24186
C         39.13170        42.30446        -1.17831
C         40.46482        44.49159        -1.39893
C         39.16599        43.72308        -1.55663
C         40.39816        45.96322        -1.20378
C         39.16162        46.65378        -1.30866
C         40.33845        48.78373        -0.92607
C         39.12649        48.05977        -1.14644
C         40.33965        50.20973        -0.94433
C         39.12390        50.91668        -1.23742
C         40.37621        53.06152        -1.15059
C         39.13430        52.33635        -1.36234
C         40.37653        54.44976        -1.23842
C         39.22419        55.14968        -1.91989
C         40.37500        57.35626        -1.61797
C         39.26477        56.65601        -1.88510
C         42.78315        15.89996         0.17143
C         41.56856        16.55805         0.05054
C         42.88327        18.73085        -0.29372
C         41.54250        17.99407        -0.26966
C         42.87596        20.21697        -0.06969
C         41.56133        20.92413         0.02575
C         42.78150        23.03020         0.90218
C         41.50623        22.25626         0.72641
C         42.77195        24.48158         0.63922
C         41.52073        25.18759         0.56392
C         42.76355        27.31749         0.47953
C         41.51991        26.61640         0.49478
C         42.76549        28.74753         0.47835
C         41.51199        29.46530         0.47118
C         42.72763        31.62358         0.34899
C         41.52701        30.91916         0.32932
C         42.76623        33.03191         0.09566
C         41.55785        33.72043        -0.24734
C         42.81371        35.84545        -0.32254
C         41.58378        35.15480        -0.45053
C         42.88695        37.29088        -0.73508
C         41.59787        38.03397        -0.56176
C         42.81893        40.18209        -0.42254
C         41.63683        39.44341        -0.62569
C         42.83010        41.63282        -0.48849
C         41.66490        42.34860        -0.88636
C         42.84275        44.47313        -0.61650
C         41.67000        43.75985        -0.91179
C         42.91984        45.95153        -0.92776
C         41.57983        46.65908        -0.87782
C         42.75621        48.78332        -0.36715
C         41.56073        48.06824        -0.73049
C         42.74416        50.19474        -0.33301
C         41.55495        50.91904        -0.68217
C         42.79014        53.05635        -0.56398
C         41.57212        52.34316        -0.76414
C         42.83043        54.47611        -0.69907
C         41.56368        55.20270        -0.84094
C         42.91755        57.29317        -1.31008
C         41.59637        56.71345        -1.07303
C         44.01964        16.59406         0.17462
C         45.36253        18.70256         0.11134
C         44.10078        17.97100         0.05014
C         45.35798        20.11888         0.23115
C         44.07027        20.74298         0.73267
C         45.28117        23.04392         0.43492
C         44.09947        22.27324         0.83228
C         45.25157        24.43141         0.47480
C         43.99707        25.16357         0.57465
C         45.22300        27.31745         0.41423
C         43.99588        26.60166         0.48355
C         45.21896        28.74632         0.45181
C         43.98944        29.44570         0.51341
C         45.25110        31.63003         0.46419
C         43.97438        30.92131         0.82334
C         45.24452        33.03699         0.33415
C         43.99706        33.74411         0.16699
C         45.24652        35.88648         0.09732
C         44.01329        35.15674        -0.02723
C         45.24080        37.32474         0.10074
C         44.06261        38.04327        -0.18178
C         45.19784        40.16535         0.27765
C         44.03516        39.46073        -0.09696
C         45.14070        41.64763         0.55617
C         43.99803        42.36156        -0.13667
C         45.22226        44.53033         0.08468
C         44.01880        43.77477        -0.23129
C         45.19416        45.91538         0.20700
C         44.00371        46.66608        -0.15029
C         45.03284        48.76483         0.74815
C         43.93752        48.03369         0.01093
C         45.09088        50.23648         0.42293
C         43.95776        50.92518         0.01117
C         45.15684        53.11055         0.04027
C         43.97888        52.36706        -0.16136
C         45.24648        54.48955        -0.31864
C         44.03795        55.19418        -0.66372
C         44.05150        56.58830        -1.04253
C         47.77741        18.76943        -0.16242
C         46.59685        18.04695        -0.07064
C         47.77323        20.18047        -0.14674
C         46.53760        20.85051         0.05998
C         47.77996        22.99564         0.46041
C         46.51511        22.35318        -0.10710
C         47.73622        24.49755         0.28905
C         46.50170        25.17784         0.33691
C         47.68590        27.33317         0.30242
C         46.46832        26.60543         0.34222
C         47.69183        28.77010         0.35172
C         46.46619        29.47124         0.43061
C         47.70752        31.61768         0.37806
C         46.46841        30.90905         0.43305
C         47.71129        33.04485         0.39387
C         46.47434        33.75345         0.31856
C         47.69098        35.90413         0.39790
C         46.47013        35.18820         0.26886
C         47.67456        37.33247         0.49616
C         46.44125        38.03993         0.38364
C         47.62940        40.17591         0.73261
C         46.41397        39.46465         0.46978
C         47.63640        41.62648         0.67200
C         46.47762        42.32207         0.40070
C         47.53515        44.46057         1.09110
C         46.55518        43.80701         0.11308
C         47.59467        45.96014         0.89303
C         46.40039        46.65623         0.60068
C         47.57048        48.78453         0.98733
C         46.38259        48.07129         0.70498
C         47.57850        50.24705         1.01485
C         46.28669        50.95421         0.87627
C         47.63030        53.13205         0.57465
C         46.32409        52.47601         0.66375
C         47.66935        54.44541         0.07847
C         46.51062        55.12460        -0.28809
C         50.21911        20.30423        -0.69005
C         49.00786        20.94586        -0.32052
C         50.21195        23.08748        -0.28021
C         49.02648        22.34467        -0.10863
C         50.21264        24.52185        -0.02972
C         48.95676        25.20720         0.21158
C         50.14035        27.36078         0.24023
C         48.91826        26.63255         0.22611
C         50.17450        28.78520         0.28388
C         48.93227        29.48644         0.31734
C         50.18394        31.61509         0.31346
C         48.94265        30.90822         0.33703
C         50.18813        33.03580         0.43504
C         48.94422        33.74718         0.47226
C         50.13184        35.87944         0.69571
C         48.93805        35.18607         0.52074
C         50.17439        37.35203         0.42984
C         48.87575        38.05938         0.70727
C         50.07203        40.18218         1.21882
C         48.83409        39.45464         0.86880
C         50.07679        41.64876         1.13727
C         48.90280        42.33844         0.89438
C         50.06332        44.46996         1.28320
C         48.87793        43.76958         1.04057
C         49.99842        45.92245         1.53855
C         48.77244        46.66556         1.19238
C         50.04396        48.79988         1.39040
C         48.79592        48.08235         1.19942
C         49.99503        50.27888         1.68598
C         48.74681        50.97002         1.17351
C         50.03404        53.06928         1.08295
C         48.79844        52.41134         0.98689
C         51.39324        21.01042        -0.83194
C         52.62805        23.16632        -0.89128
C         51.43700        22.42472        -0.65621
C         52.54217        24.66941        -0.93921
C         51.41287        25.24311        -0.07553
C         52.52217        27.38368         0.55117
C         51.35834        26.64422         0.24914
C         52.64486        28.76052         0.34127
C         51.42059        29.48501         0.21627
C         52.65004        31.64565         0.16321
C         51.42893        30.92496         0.20463
C         52.67278        33.05411         0.38115
C         51.42609        33.71866         0.54560
C         52.69638        35.91282         0.84708
C         51.39333        35.14961         0.86332
C         52.64719        37.39164         0.77697
C         51.43437        38.03624         0.87818
C         52.63446        40.25347         1.05017
C         51.39348        39.46624         1.21042
C         52.60666        41.64478         1.14365
C         51.33762        42.33917         1.60447
C         52.55102        44.53305         1.33018
C         51.32195        43.81776         1.34652
C         52.56427        45.95367         1.39584
C         51.30422        46.68245         1.61920
C         52.53156        48.85078         1.43913
C         51.26394        48.14469         1.44642
C         52.53390        50.27240         1.41277
C         51.28800        50.99960         1.39141
C         51.24677        52.37517         1.22994
C         54.92131        23.26613        -1.82064
C         53.85241        22.56852        -1.32792
C         54.91767        24.76947        -1.97895
C         53.92226        25.32016        -0.96156
C         55.43722        27.23714        -0.32809
C         54.30861        26.32138        -0.14280
C         55.30131        28.75125        -0.08651
C         53.93592        29.41310        -0.04056
C         55.16742        31.69710        -0.22495
C         53.89949        30.94418        -0.18531
C         55.16244        33.09614         0.01331
C         53.92191        33.78716         0.34164
C         55.11639        35.97016         0.38101
C         53.94087        35.20220         0.49398
C         55.09846        37.40456         0.46122
C         53.88205        38.11998         0.68865
C         55.01593        40.31191         0.50878
C         53.84652        39.55521         0.75186
C         55.02307        41.72227         0.65718
C         53.80795        42.40028         0.98793
C         55.01474        44.55335         1.08853
C         53.79545        43.82536         1.14636
C         55.00940        45.97875         1.22099
C         53.77240        46.68158         1.33497
C         54.99881        48.83546         1.40832
C         53.76044        48.12831         1.40732
C         54.97121        50.25337         1.40967
C         53.78069        50.94841         1.39111
C         57.43283        24.85149        -2.42766
C         56.31230        25.38735        -1.84095
C         57.71341        27.45183        -1.32127
C         56.34344        26.85461        -1.48584
C         57.70521        28.93329        -0.93146
C         56.42436        29.59239        -0.60156
C         57.58270        31.77882        -0.78896
C         56.37605        31.00571        -0.56896
C         57.56498        33.19050        -0.55391
C         56.37064        33.83175        -0.11761
C         57.57928        36.06520        -0.18850
C         56.44216        35.25618         0.38136
C         57.52170        37.49117        -0.13716
C         56.29020        38.14262         0.16815
C         57.53744        40.41224        -0.04743
C         56.19719        39.59216         0.02797
C         57.50805        41.80050         0.41843
C         56.26389        42.46335         0.62116
C         57.49625        44.56690         1.00213
C         56.25646        43.85649         0.90563
C         57.48412        45.98337         1.19966
C         56.24626        46.69759         1.26260
C         57.49958        48.78948         1.49934
C         56.25108        48.11461         1.39147
C         58.64416        25.58967        -2.61350
C         59.94000        27.71018        -2.34742
C         58.79878        26.89677        -2.14641
C         59.94519        29.05966        -1.98868
C         58.84911        29.72258        -1.39912
C         59.95178        31.93826        -1.40459
C         58.79575        31.14641        -1.21133
C         59.93155        33.30365        -1.17605
C         58.76218        33.96215        -0.75692
C         59.91136        36.19088        -0.87486
C         58.74835        35.40913        -0.59577
C         59.91893        37.54909        -0.67451
C         58.73463        38.24818        -0.30859
C         59.96512        40.34892         0.29032
C         58.77644        39.64814        -0.02414
C         59.95149        41.70156         0.57652
C         58.74071        42.45767         0.65288
C         59.94888        44.60677         1.08897
C         58.73761        43.87283         0.92957
C         59.93965        45.96971         1.27277
C         58.71278        46.68931         1.31668
C         58.69226        48.10124         1.47666
O         37.76299        45.21983        -2.87320
O         52.12554        35.45477         2.13129
O         32.04379        29.05841        -1.63799
O         43.53629        22.70897         2.12105
O         39.16088        34.28926        -2.03854
O         36.51405        51.60682        -2.80594
O         42.40270        21.01534        -1.18679
O         29.73432        37.64422         1.86150
O         32.67214        37.64297         1.67963
O         34.22188        21.47521         2.15573
O         58.10745        27.83928         0.00116
O         56.71737        40.13551        -1.22360
O         31.16123        46.52456         1.17431
O         53.73847        30.04957        -1.34776
O         40.03519        44.00032        -2.70852
O         34.45414        46.36935        -2.52613
O         34.43045        37.90576        -1.62319
O         50.67209        39.69450         2.50549
O         28.47924        29.27608         1.66152
O         53.58467        26.62272         1.01965
O         41.36266        56.17583         0.26743
O         28.27071        48.76846        -1.33959
O         40.59896        22.35933         1.86661
O         50.57442        46.27006         2.84159
O         55.82302        27.84414         0.93581
O         42.23991        18.32217        -1.52848
O         30.86614        22.70259         2.33258
O         34.43997        43.78770        -2.29173
O         40.53811        40.69801        -2.39370
O         46.03217        51.88844         1.98527
O         47.77832        22.72938         1.89001
H         48.59143        23.11867         2.27385
O         46.97560        44.22382         2.41956
H         47.61108        44.56791         3.08337
O         56.79054        35.12622         1.82686
H         56.03671        34.67520         2.26519
O         47.13467        43.97180        -1.21394
H         46.46856        43.69179        -1.87626
O         44.83991        41.77725         2.00373
H         45.28100        42.59679         2.32526
O         46.54426        22.60377        -1.54338
H         45.78380        22.14151        -1.95443
O         43.90605        30.99883         2.30429
H         44.70848        30.55677         2.65578
O         44.63618        48.72393         2.17049
H         45.13651        49.42638         2.63975
O         38.89192        29.71044         2.13371
H         39.71197        30.15319         2.44163
O         39.37544        54.84258        -3.35719
H         39.16210        53.89241        -3.48331
O         51.34003        42.22736         3.07655
H         51.16748        41.27132         3.27777
O         32.11390        27.11417         2.00006
H         31.46213        26.78319         2.65350
O         50.28903        37.42996        -1.06959
H         49.45761        37.06059        -1.44092
O         35.82121        41.94979         1.33095
H         35.36278        41.22867         1.83071
O         32.55319        26.54743        -1.57594
H         32.13498        27.24556        -2.13340
O         39.26276        22.63456        -1.51630
H         38.55399        22.17575        -2.01362
O         29.20148        46.38606        -1.93176
H         28.59573        47.04147        -2.34831
O         49.86273        50.35746         3.15920
H         49.04880        49.86862         3.40677
O         43.11464        37.25364        -2.20600
H         42.30032        36.88982        -2.61634
O         23.71170        44.17263        -0.86973
H         23.70834        45.14722        -0.98274
O         43.87345        20.19895         2.06323
H         43.65754        20.96025         2.65644
O         32.03674        44.00312         1.68822
H         31.83082        44.94686         1.90899
O         25.68962        31.65523        -2.17243
H         24.85511        31.99600        -2.55971
O         26.85136        35.44979        -1.94678
H         26.12271        34.92180        -2.33780
O         34.05523        30.87705        -2.20059
H         33.27143        30.32693        -2.44541
O         34.58628        39.46372         1.73843
H         33.86442        38.91727         2.14912
O         52.01643        24.97335        -2.30901
H         51.20115        24.43865        -2.43085
O         54.49176        25.12644        -3.33466
H         53.50516        25.02446        -3.34552
O         55.75497        27.52132        -2.65392
H         55.22204        26.84963        -3.15477
O         43.34370        46.02570        -2.33783
H         42.64509        45.59608        -2.87796
H         22.11569        26.80218        -0.79473
H         22.07237        29.27015        -0.79738
H         22.08048        31.20249        -0.33228
H         22.10826        33.63682        -0.30684
H         22.11053        35.46535         0.25141
H         22.11448        37.87648         0.55691
H         22.12893        39.76582         0.63020
H         22.15329        42.21277         0.70241
H         22.40387        43.94915         1.80959
H         22.56661        46.35276         2.31251
H         25.42861        23.44632        -0.24528
H         23.35005        24.68375        -0.60948
H         25.60859        49.86314         1.07969
H         23.62156        48.56497         1.78448
H         27.02391        22.51765         0.11511
H         27.38041        50.83308         1.08829
H         28.99516        21.30027         0.81779
H         29.42885        52.02070         0.57148
H         32.75918        19.13976         0.30262
H         30.70115        20.33411         0.73672
H         32.94159        54.20372        -0.79838
H         30.87412        53.01790        -0.34154
H         34.46862        18.16722         0.41943
H         34.62617        55.14897        -0.85576
H         36.56185        16.95038         0.17564
H         36.73089        56.30155        -1.31592
H         40.30740        14.80211         0.36291
H         38.19444        16.01881         0.28327
H         40.38253        58.45165        -1.73318
H         38.38216        57.18124        -2.28011
H         42.78716        14.81559         0.35456
H         42.98103        58.30187        -1.74452
H         44.92984        16.01189         0.37580
H         45.02094        57.08119        -1.19856
H         48.71944        18.21819        -0.28096
H         46.63215        16.95234        -0.15485
H         48.62705        54.97772         0.00305
H         46.60279        56.17311        -0.59930
H         50.23554        19.22176        -0.87320
H         50.08030        54.15944         0.96248
H         52.30394        20.46710        -1.11569
H         52.17454        52.95835         1.15452
H         55.80794        22.70624        -2.15183
H         53.93932        21.47218        -1.28894
H         55.90840        50.82437         1.40659
H         53.81532        52.04544         1.38653
H         57.40254        23.82587        -2.82445
H         57.52634        49.88009         1.62110
H         59.46635        25.11521        -3.16832
H         60.81066        27.29285        -2.87338
H         60.83367        29.64517        -2.26249
H         60.89456        31.47029        -1.71434
H         60.86244        33.86371        -1.32841
H         60.83763        35.70881        -1.21164
H         60.84430        38.11328        -0.85429
H         60.92438        39.81293         0.30437
H         60.90932        42.19416         0.78838
H         60.91417        44.08522         1.04913
H         60.88554        46.52022         1.37822
H         59.64426        48.64248         1.57450
