         324
 CSIRO Nanostructure Databank - Neutral Graphene Oxide Data Set
C         30.52258        57.30247         1.26946
C         30.51516        58.74789         1.44160
C         29.28045        59.52763         1.39223
C         30.51417        61.59127         0.92400
C         29.31479        60.88886         1.24211
C         32.95883        52.98319         0.97120
C         32.75513        54.35277         0.55628
C         31.70057        55.18694         1.08962
C         32.90132        57.29717         0.52065
C         31.69437        56.59190         0.95990
C         32.93737        58.71418         0.50154
C         31.82259        59.50024         1.05005
C         32.86195        61.55329         0.12971
C         31.70879        60.92103         0.69781
C         35.38081        48.70697         0.83252
C         35.35529        50.13080         0.67277
C         34.18510        50.87105         0.91292
C         35.28598        52.93963         0.11460
C         34.11725        52.26248         0.63935
C         35.28474        54.34229        -0.09520
C         34.01842        55.10105        -0.04704
C         35.20958        57.24937        -0.33658
C         34.04768        56.57649         0.07376
C         35.23861        58.68168        -0.37770
C         34.05415        59.41251        -0.01423
C         35.18533        61.57783        -0.78019
C         34.01067        60.84714        -0.15932
C         37.85642        44.48226         1.14252
C         37.83228        45.82527         0.84651
C         36.59799        46.56338         0.85832
C         37.85641        48.70940         0.57191
C         36.55780        47.95007         0.70404
C         37.67760        50.00265        -0.19532
C         36.51067        50.81850         0.17795
C         37.69397        52.88710        -0.52938
C         36.48928        52.19947        -0.11229
C         37.69641        54.31725        -0.64052
C         36.46693        55.02108        -0.44739
C         37.68414        57.18510        -1.06763
C         36.39075        56.46105        -0.76840
C         37.67547        58.67793        -0.98930
C         36.43145        59.38758        -0.66118
C         37.66890        61.48961        -0.40576
C         36.48426        60.82873        -0.59984
C         40.21866        39.99457         0.80277
C         39.92691        41.33383         1.16652
C         38.97303        42.26958         0.84502
C         40.36127        44.38759         0.77304
C         39.12051        43.69821         1.37175
C         40.28255        45.74853         0.35481
C         39.07142        46.50903         0.47564
C         40.21127        48.53809        -0.30329
C         39.04589        47.87670         0.15093
C         40.17626        49.91003        -0.96946
C         38.87595        50.68701        -0.78431
C         40.13527        52.85340        -0.81274
C         38.90081        52.16837        -0.75186
C         40.16554        54.28476        -0.81929
C         38.93221        55.01932        -0.85112
C         40.16799        57.16711        -0.76369
C         38.96739        56.45991        -0.89664
C         40.20713        58.59560        -0.59622
C         38.96993        59.39315        -0.76116
C         40.21532        61.45607        -0.19419
C         38.91410        60.72436        -0.03956
C         42.78194        35.87509         1.23544
C         42.79105        37.24684         0.95799
C         41.58341        38.00038         0.99127
C         42.79835        40.11442         0.78546
C         41.52935        39.40423         0.90247
C         42.87825        41.54698         0.66700
C         41.82661        42.38786         1.11032
C         42.73915        44.34126        -0.00369
C         41.61096        43.71632         0.64004
C         42.65657        45.69407        -0.35231
C         41.45719        46.42233        -0.11249
C         42.65755        48.53304        -0.65916
C         41.42259        47.82446        -0.39088
C         42.70250        50.02752        -0.44396
C         41.39592        50.73694        -0.68667
C         42.65529        52.83918        -0.74914
C         41.38652        52.10997        -0.77950
C         42.63949        54.27179        -0.66711
C         41.41400        54.96841        -0.76375
C         42.66780        57.09577        -0.32718
C         41.47728        56.45388        -0.99205
C         42.58722        58.51192         0.04609
C         41.36721        59.27637        -0.26557
C         42.67028        61.40898        -0.11917
C         41.40404        60.73723        -0.18210
C         45.32616        33.07508         1.59167
C         44.10417        33.71455         1.59057
C         45.28816        35.78617         0.63812
C         43.95183        35.04001         1.00235
C         45.26363        37.25363         0.63531
C         44.03325        37.94946         0.69953
C         45.24778        40.06041         0.36897
C         44.01216        39.37671         0.61647
C         45.25154        41.45800         0.06752
C         44.02887        42.19199         0.15095
C         45.14869        44.24261        -0.57104
C         43.98809        43.60434        -0.15277
C         45.12941        45.63752        -1.02270
C         43.81188        46.38949        -0.94965
C         45.11137        48.56866        -1.01811
C         43.83644        47.86241        -0.87486
C         45.11573        49.94551        -1.10026
C         43.81397        50.68627        -1.25458
C         45.10640        52.86374        -0.83891
C         43.86573        52.16160        -0.90015
C         45.10403        54.27472        -0.57368
C         43.87934        54.97899        -0.52391
C         45.13201        57.07973         0.00394
C         43.86806        56.40107        -0.25126
C         45.15013        58.52812         0.16584
C         43.87496        59.26875         0.26194
C         45.12967        61.39977         0.11742
C         43.89257        60.73937         0.06005
C         46.53050        33.72339         1.23435
C         47.75602        35.82826         0.80696
C         46.56125        35.09272         0.90632
C         47.75507        37.23067         0.56440
C         46.49630        37.94293         0.53833
C         47.71516        40.05337         0.15125
C         46.48775        39.35579         0.35401
C         47.70094        41.45241        -0.10536
C         46.46094        42.12353        -0.21629
C         47.66091        44.31708        -0.45310
C         46.43835        43.50188        -0.80239
C         47.61360        45.68539        -0.61355
C         46.38972        46.41286        -0.93461
C         47.60892        48.55687        -0.78001
C         46.34991        47.79304        -0.98495
C         47.59532        50.03778        -0.88312
C         46.36129        50.72961        -1.41291
C         47.56432        52.86385        -0.83323
C         46.33833        52.18077        -0.98955
C         47.56352        54.24479        -0.48916
C         46.34945        54.96556        -0.38878
C         47.64657        57.13009        -0.11221
C         46.33110        56.37379        -0.09484
C         47.56593        58.47586         0.58384
C         46.31776        59.23564         0.34850
C         47.54456        61.35496         0.62966
C         46.35070        60.69251         0.38669
C         48.95652        37.94460         0.39402
C         50.16949        40.06776        -0.02989
C         48.96983        39.34951         0.17369
C         50.18068        41.48277        -0.18473
C         48.93042        42.18480        -0.19923
C         50.13411        44.31025        -0.12902
C         48.91442        43.61655        -0.22677
C         50.14821        45.77408        -0.09880
C         48.84074        46.47166        -0.37240
C         50.16873        48.54905        -0.84903
C         48.88653        47.79978        -1.07806
C         50.11845        50.01344        -0.75003
C         48.87005        50.77348        -1.02213
C         50.10704        52.90443        -1.12412
C         48.83519        52.14250        -0.95286
C         50.15576        54.27444        -0.53077
C         48.84146        54.87178        -0.06869
C         50.12460        57.01667         0.65894
C         48.82420        56.30841         0.37533
C         50.12856        58.50772         0.72176
C         48.82728        59.18389         0.98994
C         50.05652        61.38719         0.82535
C         48.77798        60.69734         1.21572
C         51.38725        42.21471        -0.33805
C         52.58974        44.39286        -0.36114
C         51.39875        43.63375        -0.28046
C         52.66628        45.81770         0.12920
C         51.41450        46.49714        -0.35477
C         52.68723        48.56109        -1.08477
C         51.38893        47.84843        -0.72897
C         52.70863        49.99643        -0.59458
C         51.41010        50.75381        -0.67478
C         52.71639        52.92109        -1.08402
C         51.41846        52.17003        -1.14222
C         52.66132        54.47309        -0.88672
C         51.38502        55.06853        -0.49361
C         52.66203        57.13582         0.27704
C         51.40912        56.30041         0.32514
C         52.57815        58.60883         0.44263
C         51.29398        59.24683         0.62233
C         52.49318        61.43678         0.66714
C         51.26021        60.71660         0.68949
C         53.93333        46.56570        -0.24542
C         55.26141        48.55880        -1.03372
C         53.95750        47.83975        -0.68388
C         55.27276        50.06497        -0.77340
C         53.98575        50.76447        -0.55450
C         55.14229        52.96317        -0.60298
C         53.96307        52.24158        -0.71611
C         55.12973        54.42465        -0.54213
C         53.92127        55.13350        -0.55118
C         55.10513        57.35239        -0.29079
C         53.80529        56.64035        -0.59357
C         55.04210        58.68896         0.31506
C         53.76004        59.34043         0.45434
C         54.96163        61.45749         0.84941
C         53.74187        60.78231         0.65304
C         56.41517        50.80043        -0.70773
C         57.57608        52.95133        -0.29295
C         56.40798        52.24971        -0.51052
C         57.58057        54.38564        -0.12054
C         56.36595        55.09834        -0.29189
C         57.53216        57.22820         0.45782
C         56.39211        56.56830        -0.19342
C         57.44863        58.56648         0.79561
C         56.22267        59.32157         0.69273
C         57.34703        61.39154         1.44769
C         56.19693        60.75284         1.00918
C         58.76535        55.07747         0.21374
C         59.91405        57.07770         1.07450
C         58.77362        56.46079         0.58479
C         59.79531        58.39185         1.80650
C         58.71666        59.29547         1.15883
C         59.81218        61.30193         2.06967
C         58.49832        60.57937         1.97232
C         61.06380        59.19975         1.90660
C         61.00636        60.58392         2.05783
O         56.00455        57.27614        -1.45349
O         47.97862        58.49815         1.98437
O         44.30371        45.84751        -2.22383
O         49.60675        54.06592         0.86310
O         52.79504        53.82407        -2.20256
O         32.99553        54.58945        -0.89167
O         38.41562        59.34260        -2.09878
O         36.83991        56.70305        -2.15861
O         49.34539        46.41584         0.97617
O         44.47035        35.16053        -0.37284
O         37.85908        50.04765        -1.64847
O         53.34298        50.22277         0.69180
O         52.40334        56.31169         1.44251
O         49.29499        56.43702         1.72853
O         50.72052        52.52060        -2.39035
O         40.97051        41.84443         2.03909
O         43.08242        58.81881         1.41176
O         31.49954        59.20477         2.43919
O         50.66870        50.54476         0.56027
O         47.52740        49.37702         0.42801
O         34.93330        61.74786        -2.19015
H         35.01906        60.87244        -2.62165
O         43.05239        50.23066         0.95743
H         42.36078        49.81381         1.51255
O         53.42557        56.99276        -1.95223
H         54.24948        56.95110        -2.48988
O         41.73102        56.61610        -2.45398
H         40.94419        56.26540        -2.92510
O         52.63875        45.78312         1.59574
H         52.42692        46.68631         1.91490
O         38.78418        60.36394         1.38819
H         38.96948        61.16715         1.91889
O         52.69365        48.66018        -2.54943
H         52.47291        47.77537        -2.91168
O         47.95302        57.38576        -1.52077
H         47.15133        57.75417        -1.94916
O         46.51475        43.32153        -2.26848
H         45.64746        42.97940        -2.57334
O         40.27716        49.61137        -2.39593
H         39.35698        49.45913        -2.71468
O         43.48251        50.60024        -2.66443
H         44.31591        50.72163        -3.17254
O         59.25747        59.75160        -0.11191
H         59.23494        58.99986        -0.74062
O         48.65371        60.91986         2.65848
H         48.18188        60.13041         3.01678
O         38.19603        49.17397         1.92539
H         38.16152        48.39685         2.52317
O         46.47430        50.72823        -2.88532
H         47.09082        51.44813        -3.14100
O         48.83303        47.47009        -2.50551
H         48.71396        48.29870        -3.01583
O         55.49289        48.36138        -2.44327
H         54.67361        48.64815        -2.90989
O         39.27891        43.69691         2.82218
H         39.96989        43.02520         3.03207
O         58.08954        60.22027         3.35045
H         58.00131        61.05362         3.85947
O         59.44873        57.98648         3.16333
H         58.99590        58.74998         3.60114
H         29.58014        56.74839         1.39289
H         28.31904        58.99592         1.44288
H         30.45662        62.67047         0.72135
H         28.37329        61.45645         1.26125
H         32.19716        52.51168         1.60940
H         30.89853        54.70506         1.66783
H         32.82527        62.63505        -0.06891
H         34.43610        48.19126         1.06205
H         33.28643        50.35808         1.28510
H         35.26516        62.60532        -0.34435
H         36.91196        43.97858         1.39973
H         35.66388        46.01438         1.05142
H         37.67917        62.58955        -0.34973
H         39.38562        39.31686         0.56059
H         38.19985        42.04630         0.09801
H         40.23459        62.55621        -0.15991
H         41.87014        35.41144         1.64164
H         40.63751        37.44701         1.09851
H         42.67439        62.50793        -0.18118
H         45.38724        32.04804         1.98021
H         43.23185        33.24468         2.06757
H         45.16107        62.49626         0.03229
H         47.48089        33.18290         1.34958
H         48.71864        35.30548         0.91213
H         47.53575        62.45641         0.63590
H         49.91204        37.39908         0.42100
H         51.12623        39.52418        -0.02714
H         50.06384        62.48686         0.88017
H         52.34114        41.67004        -0.39859
H         53.50586        43.90023        -0.72485
H         52.46177        62.53172         0.77301
H         54.88486        46.06246        -0.00541
H         56.11460        48.07759        -0.49219
H         54.95032        62.54532         1.01588
H         57.39410        50.30573        -0.80408
H         58.53313        52.41230        -0.22699
H         57.32094        62.47264         1.65961
H         59.70206        54.50821         0.31151
H         60.84875        56.50162         1.16373
H         59.82585        62.39332         2.20921
H         62.03270        58.68249         1.97109
H         61.95085        61.13884         2.17255
