         424
 CSIRO Nanostructure Databank - Neutral Graphene Oxide Data Set
C          1.29684         3.39719         0.97726
C          0.12289         4.03818         0.77743
C          1.19182         6.24994         0.71444
C          0.05465         5.48067         0.71728
C          1.13239         7.70921         0.30006
C         -0.02909         8.46479         0.88499
C          1.22510        10.56487         0.79894
C          0.01838         9.81192         1.03274
C          1.22151        12.03613         0.98068
C         -0.00872        12.83335         0.87249
C          1.25471        14.94314         0.69278
C          0.03885        14.20174         0.83241
C          1.28245        16.38339         0.70259
C          0.16101        17.13132         1.17132
C          1.34276        19.22918         0.78938
C          0.18466        18.50338         1.18900
C          1.35489        20.65959         0.75567
C          0.16967        21.42195         1.01467
C          1.33037        23.51348         0.53158
C          0.14995        22.78327         0.86707
C          1.28757        24.88606         0.20102
C          0.03904        25.54366        -0.10436
C          1.23545        27.57205        -0.78720
C          0.00064        26.79732        -0.62122
C          1.20826        29.05762        -1.02045
C         -0.07072        29.78064        -1.21325
C          1.27966        31.73770        -1.70425
C          0.00164        31.06355        -1.63012
C          1.24967        33.99960        -1.47427
C          0.07175        34.75219        -1.38025
C          1.20071        36.28873         0.10624
C          0.02860        35.86384        -0.54461
C          1.20722        37.50656         0.87004
C          3.81578         3.47330         1.03708
C          2.53047         4.18878         1.33124
C          3.63701         6.28777         0.47198
C          2.48318         5.60356         0.79082
C          3.63999         7.73660         0.37724
C          2.44229         8.44471         0.47538
C          3.68143        10.59356         0.39833
C          2.43028         9.88185         0.56610
C          3.70734        12.01029         0.31599
C          2.51943        12.78318         0.72258
C          3.61069        14.88449        -0.01374
C          2.48042        14.23552         0.43814
C          3.56145        16.34438        -0.38260
C          2.44744        17.08292         0.30970
C          3.72318        19.19493         0.07542
C          2.50485        18.49778         0.38434
C          3.75452        20.61302         0.15434
C          2.55635        21.34586         0.43944
C          3.78356        23.46791         0.21415
C          2.57876        22.78235         0.41714
C          3.81039        24.96311         0.42904
C          2.51000        25.63203         0.06086
C          3.71426        27.74216        -0.43689
C          2.49228        26.96284        -0.30865
C          3.69439        29.12621        -0.64519
C          2.39004        29.87916        -0.51526
C          3.67007        32.04403        -1.01805
C          2.44309        31.26729        -1.14281
C          3.64471        33.49248        -0.79996
C          2.42253        34.29355        -0.74547
C          3.63038        36.09531         0.44248
C          2.41224        35.53985        -0.04016
C          3.62627        37.36866         1.10209
C          2.37100        38.02317         1.35915
C          6.20853         3.45662         0.56328
C          4.94237         4.11812         0.60381
C          6.16260         6.30191         0.22056
C          4.87629         5.52845         0.06331
C          6.11292         7.72352         0.17001
C          4.90696         8.42810         0.27468
C          6.10760        10.60304         0.13151
C          4.89970         9.88062         0.24722
C          6.10659        11.99291        -0.10045
C          4.87136        12.68808        -0.06425
C          6.09750        14.85986        -0.43819
C          4.78959        14.11352        -0.54263
C          6.10079        16.29345        -0.45713
C          4.90436        17.03729        -0.30767
C          6.15371        19.16135        -0.41602
C          4.92986        18.45579        -0.22156
C          6.16914        20.60704        -0.38810
C          4.97271        21.32721        -0.08808
C          6.21332        23.46145        -0.29542
C          4.99567        22.75515        -0.03958
C          6.20173        24.91666        -0.36926
C          5.00562        25.63459        -0.19829
C          6.15196        27.73931        -0.77070
C          4.96194        27.03091        -0.44587
C          6.12986        29.17105        -0.88772
C          4.90742        29.86732        -0.81699
C          6.14934        32.00939        -0.85785
C          4.89043        31.32549        -0.89136
C          6.14677        33.51534        -0.90160
C          4.84549        34.13509        -0.45159
C          6.08500        36.07835         0.49397
C          4.85952        35.43587         0.14825
C          6.07323        37.36788         1.11379
C          4.83618        37.98303         1.43050
C          8.65366         3.50482         0.50920
C          7.40583         4.17182         0.41948
C          8.63378         6.34820         0.34932
C          7.37906         5.62038         0.28944
C          8.65266         7.75238         0.22927
C          7.38404         8.47284        -0.16587
C          8.63993        10.62001         0.01507
C          7.39068         9.87725         0.41540
C          8.60028        12.00478        -0.31118
C          7.34299        12.71059        -0.35356
C          8.51979        14.83835        -0.91277
C          7.29082        14.12002        -0.53254
C          8.56543        16.29699        -0.77558
C          7.35699        17.00525        -0.57848
C          8.59435        19.11163        -0.88780
C          7.36489        18.43254        -0.61894
C          8.55824        20.59478        -1.21408
C          7.35416        21.31973        -0.66076
C          8.63676        23.44709        -0.89549
C          7.39073        22.73758        -0.61710
C          8.64822        24.89986        -0.89622
C          7.39027        25.62595        -0.71579
C          8.61176        27.71898        -1.36599
C          7.35948        27.01327        -0.90795
C          8.58172        29.20867        -1.15629
C          7.39149        29.88582        -1.01188
C          8.64095        32.03820        -0.83345
C          7.37250        31.33729        -0.92087
C          8.61046        33.44103        -0.42140
C          7.37886        34.11105        -0.27024
C          8.55621        36.09097         0.58422
C          7.34353        35.42423         0.25774
C          8.53136        37.43447         1.10543
C          7.29359        38.03412         1.38988
C         11.09973         3.51366         0.67374
C          9.87005         4.20336         0.59778
C         11.04827         6.39499         0.73422
C          9.85501         5.65966         0.56668
C         11.07610         7.80555         0.59859
C          9.85436         8.48328         0.33309
C         11.09534        10.62825         0.01473
C          9.85458         9.92899         0.12020
C         11.07805        12.01837        -0.32366
C          9.84143        12.67021        -0.52949
C         11.08430        14.85169        -0.88207
C          9.83503        14.07537        -0.96013
C         11.05348        16.24831        -0.92312
C          9.80990        16.97094        -0.88943
C         11.06536        19.09613        -1.29201
C          9.79162        18.40122        -0.97057
C         11.07664        20.60045        -1.28163
C          9.84966        21.27682        -0.72428
C         11.10071        23.43203        -1.14864
C          9.84681        22.76091        -0.99487
C         11.09406        24.91544        -1.44521
C          9.83179        25.59298        -0.99383
C         11.11724        27.79736        -0.95609
C          9.81888        27.07303        -0.68828
C         11.12368        29.15902        -1.05650
C          9.87116        29.93526        -1.44400
C         11.11720        32.02577        -0.72168
C          9.85989        31.36814        -0.96453
C         11.11231        33.53332        -0.64289
C          9.81643        34.12285        -0.15500
C         11.02887        36.15401         0.59137
C          9.79915        35.45127         0.33115
C         10.99239        37.51300         1.05313
C          9.75334        38.12537         1.31013
C         13.55757         3.56043         0.83202
C         12.31957         4.19898         0.86418
C         13.57024         6.42653         1.17224
C         12.26711         5.65667         1.10628
C         13.53285         7.86925         0.85845
C         12.33787         8.54256         0.63279
C         13.53899        10.68667         0.14577
C         12.33484         9.96147         0.27780
C         13.56852        12.03500        -0.33100
C         12.32184        12.73333        -0.53725
C         13.55119        14.79262        -1.24729
C         12.30774        14.11122        -0.83865
C         13.52461        16.29880        -1.48290
C         12.37397        16.96912        -0.72498
C         13.54137        19.13255        -1.21506
C         12.35234        18.42862        -1.10908
C         13.54236        20.57960        -1.29207
C         12.36476        21.30063        -1.19081
C         13.57938        23.46988        -1.11934
C         12.32083        22.74661        -1.16110
C         13.56497        24.89501        -0.94769
C         12.35035        25.63122        -1.00758
C         13.59215        27.72470        -0.65833
C         12.35495        27.02622        -0.88990
C         13.60615        29.15581        -0.61136
C         12.42829        29.91501        -1.17401
C         13.55205        32.01233        -0.28210
C         12.32806        31.34311        -0.66399
C         13.52358        33.41265         0.05717
C         12.32093        34.13016         0.02237
C         13.49595        36.17551         0.75856
C         12.27176        35.48162         0.46084
C         13.45381        37.58846         1.10415
C         12.21643        38.21510         1.26028
C         16.02105         3.55787         0.66711
C         14.79518         4.28173         0.88619
C         16.13128         6.39982         1.20074
C         14.82299         5.67529         1.01041
C         16.09721         7.85706         0.77347
C         14.81803         8.58733         0.90049
C         16.08537        10.68005         0.14561
C         14.81149        10.06599         0.54867
C         16.06040        12.05104        -0.25210
C         14.81925        12.70501        -0.47686
C         16.09930        14.86642        -0.92256
C         14.85676        14.07385        -1.02567
C         16.06307        16.28697        -1.01338
C         14.83321        17.01593        -1.15147
C         16.04046        19.16309        -0.93588
C         14.82172        18.41224        -1.11610
C         16.04179        20.57304        -0.98266
C         14.84137        21.30706        -1.53321
C         16.03406        23.47514        -1.02165
C         14.79484        22.77203        -1.14490
C         16.03249        24.87295        -0.82302
C         14.79947        25.58428        -0.73753
C         15.99377        27.65796         0.08349
C         14.78500        26.98837        -0.50879
C         16.00375        29.15584        -0.05301
C         14.78974        29.85709        -0.28467
C         15.95702        31.96954         0.30942
C         14.76485        31.30077        -0.14466
C         15.91516        33.34418         0.65451
C         14.72736        34.07755         0.48512
C         16.00629        36.24029         0.71629
C         14.70341        35.48773         0.71914
C         15.91396        37.64059         1.28026
C         14.67245        38.27807         1.36356
C         18.41629         3.50414         0.08590
C         17.22719         4.21675         0.47472
C         18.48289         6.32319         0.38853
C         17.30948         5.64996         0.63540
C         18.58566         7.79513         0.73172
C         17.26769         8.53239         0.53277
C         18.53098        10.63048        -0.02134
C         17.28345         9.95433         0.22570
C         18.53094        12.03927        -0.27432
C         17.30030        12.75055        -0.41779
C         18.56111        14.85024        -0.72308
C         17.31174        14.15800        -0.68513
C         18.55407        16.29592        -0.97527
C         17.28382        17.03226        -0.91168
C         18.51017        19.14951        -0.53539
C         17.28723        18.43584        -0.81441
C         18.39387        20.60111        -0.11126
C         17.23013        21.32015        -0.75663
C         18.54942        23.42019        -0.84901
C         17.26179        22.70397        -0.93236
C         18.57890        24.91426        -0.85124
C         17.28442        25.70689        -1.02352
C         18.49323        27.72845        -0.11738
C         17.29667        27.01787        -0.28366
C         18.47256        29.14685         0.15348
C         17.21704        29.85067         0.16786
C         18.41699        31.94834         0.72147
C         17.19147        31.25770         0.39358
C         18.38221        33.28821         1.18696
C         17.05043        33.95301         1.44187
C         18.28335        36.09984         1.70341
C         17.15449        35.45658         1.30608
C         18.33498        37.56639         1.73002
C         17.11784        38.28980         1.59558
C         19.57786         4.17260        -0.17557
C         20.81537         6.30222        -0.37079
C         19.65192         5.60182        -0.05115
C         20.84223         7.71503        -0.35226
C         19.76692         8.47216         0.08130
C         20.97092        10.62517        -0.21899
C         19.76190         9.91177        -0.03295
C         20.98005        11.99938        -0.35528
C         19.77319        12.73803        -0.38786
C         20.98635        14.92344        -0.29257
C         19.77484        14.17151        -0.52579
C         21.01518        16.28034        -0.26739
C         19.86673        17.07485        -0.71787
C         20.88274        19.22515         0.10722
C         19.72837        18.50127        -0.37020
C         20.88733        20.58630         0.18231
C         19.71022        21.34381        -0.16251
C         21.00403        23.45844        -0.41021
C         19.76186        22.69654        -0.39869
C         21.01151        24.80632        -0.33154
C         19.72487        25.54644        -0.06873
C         20.93740        27.78662        -0.10641
C         19.76015        27.05183        -0.19942
C         20.91085        29.17161         0.09800
C         19.69384        29.85969         0.27569
C         20.84327        31.98833         0.92571
C         19.66579        31.27483         0.62111
C         20.79248        33.29515         1.39266
C         19.55781        33.94902         1.56523
C         20.72576        36.09016         2.31175
C         19.44624        35.29834         2.26078
C         20.73731        37.44773         2.21373
C         19.54771        38.20380         1.98211
O         10.94235        19.88687        -2.55119
O          9.07245        14.33941        -2.18459
O         14.21387        14.12226        -2.37640
O         12.81904         6.07102         2.40521
O         14.83472         9.61945         1.95778
O          1.25187        32.95294        -2.40444
O         19.42578        16.73804        -2.06776
O          2.09840        12.46694         2.09452
O         18.91994        24.22560        -2.07587
O          1.46329        28.17182        -2.14915
O          8.75762        27.49246        -2.80920
H          7.90149        27.71693        -3.23235
O         11.09307        25.02713        -2.91743
H         10.22998        24.68872        -3.23834
O         19.10003        34.96840         3.66119
H         19.03741        35.81816         4.14772
O          4.73466         5.37908        -1.39991
H          3.85119         4.98799        -1.57155
O         16.35832         6.45229         2.66391
H         15.55321         6.84151         3.07143
O          3.21275        16.38519        -1.83970
H          2.27276        16.11206        -1.91616
O          7.44802         9.71234         1.86689
H          7.40621        10.60151         2.27645
O          6.24730        33.86594        -2.33511
H          6.28197        34.84427        -2.39488
O          9.58397        27.20529         0.74795
H         10.33832        26.79092         1.21650
O         18.02519        20.55220         1.31874
H         18.77201        20.12842         1.79324
O         15.03239        21.29737        -2.99551
H         14.22532        21.67935        -3.40211
O         11.20660        33.97238        -2.05635
H         11.26718        34.95164        -2.05294
O         17.21919        26.09978        -2.43430
H         17.68626        25.38848        -2.93664
O          9.93616        21.09159         0.71949
H          9.20522        21.60088         1.12989
O         16.72432        33.69431         2.85072
H         17.49809        34.02152         3.37810
O         13.27429        16.50734        -2.88698
H         13.76012        15.80232        -3.37255
O         12.70692        30.05377        -2.60994
H         11.84426        30.28882        -3.03667
O          2.49352         4.33294         2.80131
H          1.63461         4.75031         3.02568
O          8.44831        20.73749        -2.65125
H          9.24119        20.29679        -3.04749
O         12.70683        16.86896         0.69262
H         12.02972        17.36085         1.20254
O          7.40136         8.60723        -1.61571
H          7.24956         7.72002        -2.00422
O          3.97281        25.15715         1.88492
H          4.82339        24.74139         2.14079
O         16.33267        36.40971        -0.71159
H         17.12744        36.98334        -0.75841
O         18.83259         7.85608         2.17598
H         18.07444         7.39060         2.61110
O          4.54724        13.99922        -1.99592
H          4.27917        14.90084        -2.30696
O          9.96404        30.00840        -2.92136
H          9.76499        29.09455        -3.24715
O         15.84229        27.42768         1.55880
H         15.10742        28.00130         1.86602
O          0.89544         7.66349        -1.15943
H          0.91206         8.58940        -1.48304
O         19.36512        25.30055         1.33310
H         19.99015        25.79909         1.90008
O          2.13912        30.06049         0.91465
H          2.89900        30.55137         1.29250
H          1.34399         2.29876         1.00950
H         -0.80273         3.46835         0.60892
H         -0.92930         5.94223         0.55564
H         -0.96611         7.92770         1.09075
H         -0.87284        10.34754         1.39128
H         -0.98277        12.32497         0.84382
H         -0.91305        14.75217         0.82288
H         -0.73705        16.60571         1.52180
H         -0.70580        19.03937         1.54198
H         -0.76054        20.91028         1.29303
H         -0.79195        23.32159         1.03883
H         -0.90140        24.98740         0.00973
H         -0.95838        27.24006        -0.92280
H         -1.02860        29.24335        -1.18876
H         -0.89610        31.62626        -1.92123
H         -0.80302        34.45723        -1.97400
H         -0.89617        36.44871        -0.44164
H          0.25367        38.03266         1.02347
H          3.88733         2.42088         1.35603
H          2.37448        38.97196         1.91476
H          6.25240         2.38108         0.79484
H          4.83434        38.97185         1.91218
H          8.66407         2.40587         0.56561
H          7.26597        39.04458         1.82367
H         11.10761         2.41731         0.58153
H          9.72786        39.16027         1.68253
H         13.59506         2.47133         0.68055
H         12.17745        39.26931         1.57299
H         15.97211         2.46555         0.54738
H         14.62686        39.32576         1.69911
H         18.36604         2.40991        -0.01192
H         17.11287        39.36684         1.82325
H         20.47939         3.62481        -0.48703
H         21.70103         5.75235        -0.72013
H         21.73382         8.21218        -0.76043
H         21.92881        10.08842        -0.20968
H         21.94410        12.51132        -0.47177
H         21.89010        14.37953         0.01367
H         21.92393        16.78673         0.08531
H         21.80819        18.67781         0.32762
H         21.81717        21.11020         0.44252
H         21.95667        22.91739        -0.50680
H         21.96799        25.34716        -0.36172
H         21.91405        27.28624        -0.16439
H         21.86697        29.70742         0.15712
H         21.82409        31.50212         0.84007
H         21.73166        33.79923         1.65637
H         21.65762        35.56302         2.56006
H         21.68574        37.99191         2.33529
H         19.59430        39.30148         1.99911
