         272
 CSIRO Nanostructure Databank - Neutral Graphene Oxide Data Set
C        -11.13805         0.62053        -0.29389
C         -9.97400         1.49588        -0.52305
C         -8.84107         0.86760        -1.30657
C         -7.45333         1.44495        -1.05365
C         -6.24445         0.67460        -0.58812
C         -5.09405         1.40692         0.08343
C         -3.72730         0.82550        -0.28952
C         -2.53598         1.61985         0.30753
C         -1.26206         0.89445         0.67263
C         -0.10485         1.60850         1.33733
C          1.18621         0.84431         1.48235
C          2.52693         1.54160         1.31186
C          3.74734         0.76152         0.87170
C          5.05817         1.47577         0.53151
C          6.14550         0.80452        -0.27810
C          7.44462         1.54966        -0.47370
C          8.69904         0.80779        -0.83160
C         10.01816         1.50875        -0.85617
C         11.22831         0.63016        -0.77317
C         -9.92766         2.81081        -0.16426
C         -8.76660         3.67088        -0.64797
C         -7.50912         2.84109        -0.57578
C         -6.62434         3.37958         0.29937
C         -5.25812         2.83017         0.51200
C         -4.04138         3.73619         0.58190
C         -2.74226         2.97817         1.01110
C         -1.41503         3.79157         0.85442
C         -0.09484         3.10711         1.09706
C          1.23662         3.75764         0.76827
C          2.53511         3.03675         1.02212
C          3.71773         3.57572         0.20892
C          5.08468         2.97241         0.52127
C          6.34329         3.73892         0.14103
C          7.61944         3.00003        -0.09435
C          8.81994         3.76352        -0.55832
C         10.14290         3.00192        -0.52014
C         -8.27987         4.94668         0.13671
C         -7.51812         5.90075        -0.77174
C         -6.36697         5.22886        -1.47588
C         -5.00562         5.75354        -1.00069
C         -4.00867         5.11570        -0.03207
C         -2.66796         5.77866        -0.24131
C         -1.40139         5.06068         0.05820
C         -0.08893         5.81014        -0.07085
C          1.20533         5.07569         0.02109
C          2.48152         5.87595        -0.02383
C          3.75957         5.11370         0.15629
C          4.94164         5.84697         0.70436
C          6.28589         5.10000        -0.52722
C          7.55351         5.91169        -0.35838
C          8.78019         5.13122        -0.57807
C         -7.43266         7.24793        -0.72496
C         -6.29703         7.95391        -1.50102
C         -4.96292         7.25718        -1.17869
C         -3.82816         8.02457        -0.66029
C         -2.65524         7.28022        -0.20127
C         -1.38510         8.04005         0.03091
C         -0.09390         7.28917         0.19525
C          1.16801         8.08175         0.30005
C          2.46291         7.38415         0.04141
C          3.74000         8.11833         0.25561
C          5.01001         7.34164         0.54908
C          6.29656         8.03651         0.19819
C          7.52894         7.25436        -0.12044
C         -6.23267         9.43288        -1.17270
C         -5.11913        10.09964        -0.80914
C         -3.82171         9.44238        -0.61271
C         -2.63184        10.15015        -0.42133
C         -1.30046         9.44227        -0.55093
C         -0.03494        10.18932        -0.13679
C          1.14183         9.56575         0.11834
C          2.47565        10.33321         0.07769
C          3.74848         9.60189         0.62276
C          5.02095        10.17539        -0.00624
C          6.14018         9.45724        -0.22844
C        -11.13320        -0.73004        -0.10619
C         -9.96084        -1.53591         0.23733
C         -8.75218        -0.77186         0.65223
C         -7.48254        -1.47586         0.25510
C         -6.27012        -0.80205        -0.28984
C         -4.96971        -1.44231         0.11328
C         -3.70291        -0.65476         0.14907
C         -2.39050        -1.37869         0.08523
C         -1.15736        -0.61234         0.47492
C         -0.06676        -1.40985         1.16940
C          1.24894        -0.70659         1.64473
C          2.39973        -1.40746         0.90522
C          3.61803        -0.67393         0.46166
C          4.85541        -1.43254         0.00475
C          6.06944        -0.69710        -0.49445
C          7.36160        -1.43811        -0.75825
C          8.66015        -0.70466        -0.81537
C          9.87217        -1.41758        -0.24088
C         11.16116        -0.70238        -0.60015
C         -9.87868        -2.90198         0.26361
C         -8.73805        -3.59969         1.00274
C         -7.41078        -2.83068         0.88908
C         -6.14323        -3.59937         0.77596
C         -4.96580        -2.94607         0.11908
C         -3.67710        -3.68291         0.13817
C         -2.38799        -2.91073         0.02062
C         -1.09472        -3.63993         0.21676
C         -0.04177        -2.91451         1.01028
C          1.23965        -3.67891         1.30098
C          2.50147        -2.89366         1.18671
C          3.82506        -3.59141         1.05585
C          5.01377        -2.83663         0.53819
C          6.29670        -3.59213         0.26103
C          7.31768        -2.97621        -0.70025
C          8.68218        -3.62901        -0.52768
C          9.83699        -2.91526        -0.47475
C         -8.40382        -5.10678         0.75991
C         -7.32347        -5.59870        -0.21173
C         -6.27771        -5.11600         0.77101
C         -4.95424        -5.88643         1.00047
C         -3.63998        -5.08955         0.69149
C         -2.36719        -5.83643         0.41231
C         -1.02529        -5.17223         0.09956
C         -0.00441        -5.92464         0.96130
C          1.23840        -5.19618         1.36189
C          2.57687        -5.91101         1.39056
C          3.84256        -5.11843         1.12805
C          4.88947        -5.73807         0.18398
C          6.27977        -5.08431         0.24907
C          7.47707        -5.78738        -0.31375
C          8.61844        -5.09263        -0.57778
C         -7.28098        -6.84163        -0.76182
C         -6.11276        -7.74226        -0.53890
C         -4.97265        -7.27842         0.33084
C         -3.66154        -8.03967         0.26106
C         -2.46792        -7.22045        -0.20298
C         -1.05448        -7.90496        -0.31111
C         -0.11661        -7.47278         0.84890
C          1.26614        -8.15326         0.76686
C          2.54531        -7.41183         1.10504
C          3.86240        -8.07420         0.75733
C          5.00865        -7.25690         0.26445
C          6.07286        -7.87138        -0.64295
C          7.46827        -7.30681        -0.28114
C         -5.91519        -9.00172        -1.29737
C         -4.87276        -9.83334        -1.06545
C         -3.66950        -9.42970        -0.29934
C         -2.34671       -10.04898        -0.62377
C         -1.16533        -9.41779        -0.44274
C          0.16843       -10.08006        -0.71339
C          1.37235        -9.42132        -0.03156
C          2.56937       -10.02423        -0.18509
C          3.81845        -9.59048         0.55318
C          5.06419       -10.12233        -0.11139
C          6.06223        -9.38078        -0.60213
O         -3.65054        -9.15899         1.16663
O          4.74380        -2.90214         1.96843
O          0.51093         7.59038         1.50787
O          0.38571         1.29984         2.64820
O         -1.97905         5.04706        -1.29210
O          2.02130         3.93766         2.01423
O         -2.26590         7.81996         1.14808
O         -9.04106        -0.02449        -2.10609
O         -0.62726        -2.27785         2.19208
O          6.41844         1.49579        -1.53098
O         -7.11551         4.49833         0.95232
O          2.50346        -0.96127        -0.46763
O         -6.39952         1.05973        -1.98277
O          8.03084        -1.14293        -2.03336
O          6.84824        -3.41714        -1.95250
O         -0.47717        -7.58421        -1.54404
O          3.45387         1.00924         2.28513
O          7.30034         3.55244         1.23063
O         -6.52657        -2.96107         2.03452
O         -4.44042        -0.90743         1.37528
O          3.33670         5.52550        -1.15528
O          3.21269         7.95247        -1.09015
O         -6.03672        -8.05892         0.92791
O         -7.13026        -1.57115        -1.16508
O         -7.35496        -5.36919         1.80335
O         -1.51586        -3.21555        -1.11344
O          4.99682        -7.72352         1.63546
O          1.91872        -3.20208         2.48531
O         -6.44742         4.52892        -2.46485
O          6.70944        -4.32704         1.43464
O          0.19577        -5.55322         2.33979
O          1.84906        -8.21515         2.11719
O          5.39139         2.24296         1.72750
O          9.27352         1.30195        -2.09403
O         -5.24826         1.72779         1.48389
O         -4.42039         6.32060        -2.20661
O         -1.42854         1.60141        -0.62014
O          3.54910        -5.61724         2.44269
O         -0.75306         3.90708         2.13514
O         -4.50503        -3.61494        -1.08222
O         -2.70205        -5.42184         1.75697
O          5.04146        -1.17907        -1.41244
O         -8.75086         0.25539         1.31272
O          0.55759         5.25517        -1.26514
O          5.81975         7.90039         1.62639
O          5.70796         5.16484        -1.66354
O         -4.34240         4.94453         1.36701
O         -1.45763        -0.87988        -0.91850
O          3.77766         9.76791         2.04375
H          4.60704         9.35467         2.37732
O         -1.11582         9.21009        -1.98994
H         -1.02938        10.07874        -2.43675
O          5.30769         5.42772         1.94120
H          5.86117         6.13145         2.36126
O         10.68650         3.16100         0.79957
H          9.98276         2.98669         1.45892
O         -0.53915        -5.41614        -1.23079
H         -1.16836        -5.01973        -1.87642
O          4.33682        -5.37665        -1.10692
H          4.90189        -5.77546        -1.81296
O          1.45231        -0.92485         3.02710
H          0.79946        -0.39629         3.53415
O         -6.55487         7.82803        -2.91051
H         -5.95642         7.13345        -3.27000
O          3.43416         3.09314        -1.12238
H          3.92825         3.64460        -1.77494
O          9.70520        -1.22218         1.20765
H         10.38334        -1.75925         1.66971
O         -9.10117         4.05521        -1.99304
H         -8.27081         4.10595        -2.52674
O          2.70715        10.67912        -1.29242
H          2.84685         9.83939        -1.78831
O         -2.89740         2.65128         2.38804
H         -3.05335         3.47406         2.89786
O         -9.15333        -3.55255         2.38578
H         -8.37936        -3.86321         2.91190
O          0.12040       -11.46461        -0.36813
H          0.04356       -11.53850         0.60548
O         -0.76317        -7.93803         2.03319
H         -0.34220        -7.48752         2.80055
O         -2.86400        -6.92246        -1.57395
H         -2.04596        -7.10234        -2.11950
O         -4.90154        -6.14139         2.40809
H         -5.61337        -6.78846         2.60790
O          5.76105        -7.45387        -2.00025
H          6.39265        -7.88571        -2.61294
O          3.75713       -10.20879         1.86070
H          3.09157        -9.70125         2.38397
O          7.84625        -7.76454         1.01850
H          7.08769        -7.64345         1.63225
O         -3.62778         0.88261        -1.70826
H         -2.69322         0.68594        -1.95400
H         12.09190        -1.29218        -0.59561
H         12.20516         1.11065        -0.93923
H         10.87414         3.46540        -1.22937
H          9.71593         5.69337        -0.72960
H          8.47604         7.81913        -0.11134
H          7.00934         9.93738        -0.70347
H          4.99986        11.23304        -0.30951
H          2.36382        11.28994         0.64482
H         -0.03588        11.28237        -0.28214
H         -2.65561        11.25079        -0.41316
H         -5.16403        11.18817        -0.65409
H         -7.16638         9.99456        -1.32589
H         -8.17819         7.85343        -0.18578
H         -9.01643         5.44787         0.80099
H        -10.76290         3.27126         0.38788
H        -12.12293         1.11106        -0.36953
H        -12.10521        -1.24853        -0.08522
H        -10.75072        -3.51062        -0.02606
H         -9.29213        -5.76842         0.88534
H         -8.20170        -7.29494        -1.16491
H         -6.71207        -9.30844        -1.99204
H         -4.80761       -10.77530        -1.63294
H         -2.33689       -11.13223        -0.83390
H          0.34663       -10.03412        -1.82290
H          2.61350       -10.96868        -0.75032
H          5.14865       -11.21982        -0.13868
H          6.93773        -9.88014        -1.04845
H          8.22631        -7.70096        -1.00816
H          9.53957        -5.64243        -0.82987
H         10.79763        -3.45513        -0.42081
