         324
 CSIRO Nanostructure Databank - Neutral Graphene Oxide Data Set
C          1.32362         1.93503         0.63413
C          1.24100         3.33219         0.46861
C          2.54373         1.29183         0.55393
C          2.38325         4.09264         0.21440
C          1.09595         6.33340        -0.00294
C          1.10036         7.69227        -0.20223
C          2.33539         5.57927         0.22343
C          2.30121         8.45438        -0.31845
C          1.06116        10.75336        -0.56370
C          1.11330        12.10193        -0.45529
C          2.31234         9.92550        -0.73190
C          2.34821        12.85977        -0.23979
C          1.23279        15.12986        -0.21342
C          1.33353        16.49248        -0.13756
C          2.36463        14.25641        -0.04671
C          2.63956        17.17879        -0.03692
C          2.75957        18.61320         0.28759
C          3.72967         2.01868         0.24689
C          3.64598         3.44470         0.06120
C          4.96931         1.34657         0.16614
C          4.81556         4.16678        -0.34904
C          3.63112         6.33251        -0.06156
C          3.54032         7.77883        -0.35688
C          4.83871         5.57096        -0.46559
C          4.75292         8.47121        -0.56825
C          3.49320        10.64349        -0.10253
C          3.55009        12.09764        -0.08580
C          4.81674         9.86865        -0.17670
C          4.80563        12.70782         0.23177
C          3.55856        14.88006         0.63985
C          3.83691        16.32848         0.26048
C          4.81767        14.07030         0.57317
C          5.04385        16.95469         0.87743
C          3.93589        19.16403         0.67830
C          5.17297        18.41218         0.87756
C          6.13779         1.98240        -0.32854
C          5.99798         3.39597        -0.75827
C          7.33875         1.31191        -0.49380
C          7.30209         4.17041        -1.04029
C          6.03010         6.28303        -0.79728
C          5.98803         7.76009        -0.90328
C          7.28004         5.63059        -0.88029
C          7.30602         8.53534        -0.79722
C          6.08346        10.61652        -0.19589
C          6.05439        11.98763         0.15629
C          7.30574         9.95756        -0.38325
C          7.29243        12.65519         0.43093
C          5.99198        14.66934         1.07919
C          5.98057        16.09306         1.39529
C          7.18020        13.92329         1.06602
C          7.92910        17.21238         1.19340
C          6.36105        19.13644         0.96771
C          7.70703        18.61065         0.89604
C          8.53688         1.94925        -1.16127
C          8.55294         3.43225        -0.88101
C          9.80549         1.26960        -0.74187
C          9.73182         4.11767        -0.58099
C          8.52287         6.32264        -0.72064
C          8.54258         7.75592        -0.61239
C          9.73607         5.57692        -0.53646
C          9.73290         8.46827        -0.46961
C          8.54311        10.66137        -0.22371
C          8.54987        12.02622         0.13690
C          9.78290         9.89470        -0.35254
C          9.90466        12.76363         0.27318
C          9.10404        15.06679         0.72153
C          8.93086        16.49138         0.58603
C          9.90605        14.26815        -0.04879
C          9.91388        17.24440        -0.20436
C          8.81743        19.35196         0.46942
C         10.03278        18.69311         0.07040
C         10.98279         1.96188        -0.46303
C         10.95893         3.40365        -0.45205
C         12.20537         1.24644        -0.18689
C         12.21067         4.14487        -0.30427
C         10.95217         6.26181        -0.32871
C         10.98967         7.71279        -0.54396
C         12.18040         5.60609        -0.07326
C         12.30133         8.43074        -0.39750
C         11.01862        10.55468        -0.30737
C         11.00122        12.02383        -0.47653
C         12.27410         9.89682        -0.30880
C         12.26184        12.69476        -0.91285
C         11.01718        14.94934        -0.77536
C         11.08706        16.45273        -0.72435
C         12.30430        14.20090        -1.00326
C         12.39274        17.11505        -0.73975
C         11.24268        19.29357        -0.24235
C         12.42586        18.52887        -0.57131
C         13.42775         1.89090         0.04663
C         13.47163         3.37021        -0.06391
C         14.65786         1.24853         0.27075
C         14.57603         4.06896         0.66094
C         13.36391         6.30846         0.26135
C         13.47254         7.72253         0.13634
C         14.50685         5.55591         0.81984
C         14.62854         8.47808         0.41748
C         13.49820        10.56702        -0.33597
C         13.58808        11.93829        -0.97340
C         14.69826         9.87533         0.03526
C         14.78977        12.74046        -0.52364
C         13.58737        14.91106        -0.85567
C         13.59541        16.33838        -0.80171
C         14.78951        14.17137        -0.68601
C         14.85399        17.01827        -0.80461
C         13.68089        19.18180        -0.63450
C         14.87842        18.46049        -0.77252
C         15.88876         1.98005         0.43653
C         15.87683         3.38981         0.67306
C         17.12858         1.31974         0.38177
C         17.07952         4.14135         0.86296
C         15.77887         6.28214         1.13121
C         15.81159         7.81913         1.00671
C         17.04149         5.56301         1.05503
C         17.12344         8.50266         0.94073
C         15.89048        10.62688         0.17798
C         15.93804        12.04407        -0.09332
C         17.05615         9.98333         0.82375
C         17.19962        12.76748         0.02409
C         16.04162        14.87311        -0.68842
C         16.06273        16.28781        -0.84523
C         17.24644        14.12249        -0.43384
C         17.32766        17.00466        -1.16299
C         16.12666        19.13604        -0.79102
C         17.36068        18.49607        -0.99508
C         18.35910         2.02859         0.53910
C         18.31549         3.43884         0.81990
C         19.57631         1.34547         0.40721
C         19.57234         4.20828         0.81346
C         18.26439         6.33816         1.36862
C         18.30514         7.82252         1.18972
C         19.57113         5.59677         1.36778
C         19.59226         8.50314         1.17385
C         18.31836        10.76581         1.02538
C         18.39404        12.14174         0.46598
C         19.58549         9.99118         1.26066
C         19.62876        12.85196         0.49946
C         18.49233        14.79070        -0.47647
C         18.59345        16.13015        -1.08006
C         19.64398        14.20932         0.07665
C         19.91448        16.76162        -1.04698
C         18.51105        19.31389        -0.84709
C         19.85731        18.92474        -1.05415
C         20.89198         1.97539         0.74065
C         20.86457         3.48810         0.61948
C         22.06415         1.45274        -0.04829
C         22.16247         4.16538         0.84703
C         20.87232         6.35594         1.38668
C         20.83163         7.82841         1.19242
C         22.17025         5.61034         1.18170
C         22.08935         8.49600         1.00183
C         20.87641        10.73610         1.10029
C         20.89203        12.19077         0.78404
C         22.07864         9.94272         0.73341
C         22.10821        12.86539         0.76544
C         20.82686        15.04245         0.38244
C         20.95420        16.38272        -0.24158
C         22.09332        14.34060         0.79649
C         22.19012        17.15513        -0.15900
C         21.01325        19.39799        -0.45246
C         22.21288        18.58622        -0.36423
C         23.24583         2.13709        -0.07272
C         23.32712         3.49833         0.53557
C         24.35629         1.57191        -0.85792
C         24.57281         4.25773         0.60304
C         23.38092         6.38975         0.85091
C         23.33098         7.80988         0.86233
C         24.58225         5.69335         0.63881
C         24.59691         8.52906         0.75516
C         23.39020        10.69867         0.60640
C         23.40144        12.18234         0.76044
C         24.61880         9.93100         0.75861
C         24.59773        12.86254         0.76876
C         23.37375        15.11523         0.75302
C         23.38608        16.50047         0.22594
C         24.66212        14.34428         0.82061
C         24.63976        17.15640         0.13148
C         23.44900        19.25147        -0.30162
C         24.66096        18.55223        -0.16868
C         25.65222         1.69316        -0.44357
C         25.80481         3.61498         0.59257
C         26.90051         1.44023        -1.10821
C         27.03718         4.24860         0.31020
C         25.84734         6.39604         0.60813
C         25.83721         7.78969         0.71885
C         27.08748         5.65097         0.41759
C         27.12269         8.52030         1.05441
C         25.87578        10.69011         0.56823
C         25.91560        12.14538         0.98228
C         27.15566         9.94649         0.51930
C         27.16070        12.86832         0.48957
C         25.91622        15.03110         0.44376
C         25.88868        16.43432         0.23509
C         27.13333        14.30423         0.36246
C         27.11702        17.13856         0.03958
C         25.91012        19.21082        -0.40003
C         27.10191        18.52887        -0.33395
C         28.07958         2.12086        -0.81847
C         28.21756         3.41287        -0.05306
C         29.26804         1.58564        -1.42945
C         29.51249         4.21523        -0.29445
C         28.34417         6.34041         0.30059
C         28.40923         7.75789         0.72184
C         29.50445         5.69054        -0.12614
C         29.66240         8.53692         0.42256
C         28.42924        10.71506         0.53209
C         28.37632        12.15621         0.40322
C         29.61907        10.02324         0.36471
C         29.62244        12.84779         0.19151
C         28.35070        15.03691         0.21126
C         28.34979        16.43642         0.15920
C         29.61712        14.30435         0.03135
C         29.61184        17.21820         0.28033
C         28.35097        19.19106        -0.86943
C         29.62545        18.62082        -0.27945
C         30.45082         2.27077        -1.55044
C         30.57809         3.62012        -1.12034
C         31.69350         4.39115        -1.44556
C         30.70926         6.42129        -0.46055
C         30.79142         7.84461        -0.24017
C         31.77542         5.73868        -1.08056
C         31.91825         8.60605        -0.54557
C         30.84841        10.71800         0.10333
C         30.84475        12.16334         0.15215
C         31.97229         9.99216        -0.31054
C         32.08422        12.88432         0.31080
C         30.94793        15.05325         0.13811
C         30.93167        16.50726         0.59939
C         32.12568        14.23718         0.44227
C         32.14312        17.25356         0.10137
C         30.89832        19.17372        -0.74395
C         32.09296        18.48873        -0.51927
O         22.59681        10.29071        -0.58787
O         29.48071        18.38499         1.17328
O         30.36114        14.80017        -1.16057
O         18.86687         5.78797         2.61855
O          3.58076        16.71316        -1.10765
O         20.19593         4.09859        -0.54210
O         13.20864         3.84589        -1.40746
O         24.08464        14.95643         2.03720
O         26.44895        10.28079        -0.73180
O         11.83466         8.01122        -1.73245
O          6.44137         3.66697        -2.13149
O         15.61025         7.16140         2.29696
O         29.27525         3.44690         0.94157
O         11.26233        12.23753        -1.89895
O         20.35493        10.46552         2.43408
O         20.06104        17.82844        -1.92766
O         17.36303        10.64611         2.12727
O         29.41277         7.97536         1.77987
O          7.07283        16.59903         2.11771
O         17.91809        16.37761        -2.34884
O         21.67668         5.93410         2.54108
O          4.04977        10.05589         1.09654
O          3.18770         6.08221         1.31741
O         14.12912         4.65598         1.93445
O         21.18740        14.92623         1.79617
O         11.44093        14.59845        -2.12615
O          8.30521        14.45005         1.70796
O          6.66632         8.29207        -2.09790
O         10.04920        16.97422        -1.63669
O         25.83131         2.24568         0.84572
O          8.40004         1.77025        -2.61744
H          7.63164         2.33013        -2.88752
O         27.06440         8.66951         2.49916
H         27.98311         8.54620         2.83935
O         31.03719        16.43729         2.05017
H         30.74844        17.31692         2.38637
O         28.37715        19.03822        -2.30193
H         28.27176        18.08846        -2.51685
O          3.18869        14.95515         2.06578
H          3.03656        14.03942         2.38297
O         26.05834        12.09087         2.44157
H         25.87641        12.98613         2.80089
O         21.14586         1.68300         2.15805
H         22.05870         1.97707         2.36595
O          2.60515         9.93283        -2.17006
H          1.82382         9.57665        -2.64249
O         13.83819        11.65319        -2.38439
H         12.95636        11.51282        -2.80203
O         10.30853        12.62865         1.66602
H          9.63350        13.10168         2.20780
H          0.41150         1.36372         0.85468
H          0.26514         3.82534         0.57758
H          2.61051         0.20517         0.70643
H          0.14261         5.78824        -0.05304
H          0.13557         8.20543        -0.33122
H          0.08068        10.26489        -0.67683
H          0.16587        12.66132        -0.44020
H          0.24607        14.68847        -0.42101
H          0.42961        17.11164        -0.24106
H          1.86226        19.24466         0.19848
H          5.00930         0.27291         0.40350
H          3.98084        20.24973         0.85663
H          7.41041         0.26144        -0.17277
H          6.27011        20.23029         0.85979
H          9.82271         0.16885        -0.75507
H          8.74001        20.44499         0.36489
H         12.16637         0.14711        -0.17277
H         11.35511        20.38323        -0.13450
H         14.70477         0.14976         0.25222
H         13.72300        20.27736        -0.54467
H         17.15930         0.23603         0.19670
H         16.12213        20.22969        -0.66794
H         19.55965         0.26801         0.18384
H         18.33701        20.32394        -0.44328
H         21.99041         0.46960        -0.53670
H         21.02024        20.38304         0.03764
H         24.11344         1.04538        -1.79229
H         23.47697        20.34014        -0.45494
H         26.94280         0.63853        -1.86274
H         25.89972        20.26540        -0.71324
H         29.19625         0.57533        -1.85879
H         28.31410        20.29185        -0.66980
H         31.30222         1.80115        -2.06410
H         32.51967         3.93207        -2.00728
H         32.68735         6.28628        -1.35041
H         32.80964         8.13103        -0.97644
H         32.90160        10.52388        -0.55575
H         32.99893        12.30304         0.49478
H         33.04266        14.73095         0.79288
H         33.12304        16.79173         0.28843
H         30.88876        20.10166        -1.33145
H         33.03387        18.94358        -0.86345
