         260
 CSIRO Nanostructure Databank - Neutral Graphene Oxide Data Set
C         30.59700        31.68018        -1.54305
C         30.65345        32.96110        -1.44643
C         30.39482        36.03177        -0.82837
C         30.48563        37.23197        -1.10168
C         30.49101        40.53744        -0.99746
C         30.43009        41.75889        -0.83735
C         32.55100        28.89421        -0.01849
C         31.62863        29.45492        -0.66078
C         32.89741        31.49108        -0.88221
C         31.55256        30.81567        -1.06246
C         32.89784        33.07605        -0.78518
C         31.60344        33.77960        -0.89045
C         32.65478        35.94178         0.11590
C         31.43204        35.12849        -0.32660
C         32.59532        37.47377         0.12943
C         31.42475        38.21411        -0.54351
C         32.84444        40.34216        -0.56803
C         31.62621        39.57494        -1.16482
C         32.82370        41.84953        -0.64569
C         31.48744        42.56420        -0.14137
C         32.82973        44.55198        -0.28797
C         31.70975        44.03236        -0.42413
C         35.35343        27.17476         0.47939
C         35.01462        28.61935         0.70068
C         34.01658        29.22649        -0.27988
C         35.07783        31.50619         0.50945
C         34.00574        30.76059        -0.25961
C         35.13288        33.02533         0.26747
C         34.04011        33.75235        -0.10925
C         35.12843        35.95882         0.61383
C         34.01733        35.28369        -0.16987
C         35.14679        37.46344         0.62738
C         33.86023        38.31210         0.49309
C         35.26904        40.39981         0.15874
C         33.96597        39.66776        -0.21352
C         35.37629        41.83481        -0.36393
C         34.12442        42.59161        -0.60069
C         35.37325        44.72709        -0.40456
C         34.17814        44.08200        -0.38862
C         35.72876        46.10595        -0.28170
C         37.63050        27.15769         1.30736
C         36.36044        26.57436         0.85256
C         37.69231        28.61701         0.96704
C         36.43809        29.26966         0.48726
C         37.72110        31.45503         0.52395
C         36.43302        30.77987         0.32864
C         37.67840        32.91689         0.77701
C         36.37238        33.68811         0.76757
C         37.74158        35.94711         0.77950
C         36.42885        35.20180         0.81349
C         37.75771        37.37613         0.35864
C         36.45828        38.09494         0.19706
C         37.79163        40.21391        -0.50207
C         36.47114        39.52456        -0.25133
C         37.84247        41.71069        -0.47185
C         36.57294        42.49009        -0.35564
C         38.00532        44.66771        -0.64669
C         36.65941        43.95684        -0.63410
C         38.11150        46.20197        -0.54679
C         36.77381        46.76657        -0.28268
C         40.11854        24.54201         0.57137
C         39.08542        25.00814         1.07077
C         40.25186        27.13915         1.50511
C         38.90145        26.39180         1.49032
C         40.19671        28.66661         1.38162
C         38.89871        29.31022         0.96019
C         40.18493        31.41711         0.30706
C         38.89946        30.72998         0.62467
C         40.17988        32.92912         0.17960
C         38.98147        33.66016         0.69888
C         40.23503        35.83929         0.18767
C         39.02052        35.16638         0.67519
C         40.22563        37.25576         0.13194
C         38.95221        37.98667         0.11227
C         40.14782        40.11203         0.49077
C         39.10125        39.41384        -0.38934
C         40.16577        41.61412         0.61544
C         39.16157        42.39308        -0.19495
C         40.41024        44.60604         0.36448
C         39.26140        43.88984        -0.28139
C         40.59565        45.96101         0.17681
C         39.41163        46.84042        -0.16623
C         40.37788        48.82897         1.11987
C         39.55454        48.15726         0.45854
C         42.68645        24.54208         0.21828
C         41.44100        25.09519         0.63242
C         42.83376        27.14509         1.16487
C         41.51553        26.41716         1.11165
C         42.88002        28.67397         1.27948
C         41.52427        29.43656         1.30226
C         42.51329        31.68902         0.96552
C         41.46550        30.83102         0.78372
C         42.72332        32.90047         0.08499
C         41.44593        33.69720         0.18463
C         42.71707        35.77216        -0.17483
C         41.44267        35.08040         0.12090
C         42.70485        37.29923        -0.11243
C         41.43773        37.96207         0.17203
C         42.74244        40.05986         0.89978
C         41.43281        39.34363         0.67902
C         42.73120        41.55082         1.16742
C         41.41412        42.30484         1.07755
C         42.75866        44.48525         1.43366
C         41.46909        43.81324         1.03452
C         42.89395        45.94323         1.16652
C         41.89205        46.57830         0.47956
C         42.88132        48.79875         1.91470
C         41.79506        48.77911         1.02696
C         43.76301        25.12746         0.01982
C         45.28792        27.16715         0.14492
C         44.10606        26.42463         0.59080
C         45.42537        28.58492         0.56021
C         44.18819        29.35611         0.90427
C         45.56230        31.51274         0.75949
C         44.42111        30.67660         1.19569
C         45.35984        33.00021         0.40532
C         44.01735        33.70013         0.28704
C         45.24421        35.87753        -0.01391
C         43.99775        35.04446         0.03034
C         45.19655        37.34220        -0.50565
C         43.96721        38.06289         0.03684
C         45.11124        40.25084        -0.05762
C         43.96801        39.38580         0.36080
C         45.14584        41.70780         0.31105
C         43.98693        42.35421         0.99281
C         45.30824        44.43411         1.19988
C         44.01951        43.68594         1.28591
C         45.33421        45.89328         1.65065
C         44.02081        46.55077         2.06461
C         43.88597        48.03999         1.97240
C         47.54720        27.30639        -0.68509
C         46.46569        26.69438        -0.37805
C         47.84415        28.64922        -0.55149
C         46.73635        29.34862         0.19085
C         47.83854        31.55005        -0.24312
C         46.71756        30.81966         0.16112
C         47.82012        32.96019        -0.23521
C         46.48277        33.64739        -0.43282
C         47.78807        35.88836        -0.58373
C         46.53950        35.15189        -0.17457
C         47.71910        37.41652        -0.85663
C         46.51280        38.10228        -0.15345
C         47.63327        40.40361        -0.43948
C         46.37075        39.57718        -0.64754
C         47.57715        41.78460        -0.42487
C         46.40143        42.49218         0.08466
C         47.49713        44.71900        -0.19606
C         46.39619        43.84376         0.35489
C         47.38870        46.06022         0.38618
C         46.44816        46.58146         0.98786
C         50.24773        28.93200        -1.35379
C         49.00880        29.37494        -0.93224
C         50.37229        31.61950        -0.85507
C         49.03889        30.86891        -0.80023
C         50.43148        32.98555        -0.16912
C         49.08441        33.69051        -0.01788
C         50.29176        35.94302         0.18385
C         49.07335        35.17717        -0.28327
C         50.27454        37.45400        -0.09159
C         49.03818        38.16774        -0.58877
C         50.07784        40.44809        -0.06856
C         48.95145        39.72010        -0.80503
C         50.04653        41.96195        -0.14050
C         48.83773        42.55132        -0.88136
C         50.06308        44.66867        -0.70159
C         48.71436        44.09416        -0.77487
C         51.38084        29.52719        -1.44559
C         52.76738        31.71537        -1.03952
C         51.64754        30.83918        -1.13726
C         52.77965        32.93647        -0.82445
C         51.83093        33.83033        -0.09529
C         52.61911        36.28927        -0.46637
C         51.61817        35.22682        -0.69076
C         52.64614        37.51311        -0.27895
C         51.51489        38.21697         0.45224
C         52.44826        40.68837         0.49217
C         51.34376        39.72029         0.38390
C         52.45427        41.90982         0.30453
C         51.31781        42.80846         0.13788
C         51.15376        44.14734        -0.44283
O         41.75747        44.21627         2.43961
O         31.47497        38.05473         0.87036
O         36.52219        29.88692        -0.82513
O         35.26582        40.53223         1.55059
O         50.07690        37.67235        -1.51181
O         42.11019        47.88664        -0.04443
O         43.48160        31.41178         1.92169
O         39.75739        43.02669        -1.36619
O         40.21857        27.98090         2.67353
O         48.58334        35.29227        -1.65711
O         40.06951        32.07213        -1.00928
O         50.32053        42.58989         1.14959
O         37.06812        35.67948         2.03125
O         43.83947        26.50671         2.00967
O         46.49673        28.81432         1.53815
O         42.87005        40.58919         2.25734
O         45.78090        44.87729         2.56563
O         42.31143        29.21302         2.49782
O         45.84390        32.61738         1.70198
O         34.91167        36.69176         1.84828
O         39.31755        34.39322         1.90118
O         37.36719        44.26085        -1.88587
O         44.60610        41.25416        -1.00249
O         36.90130        33.12586         2.01332
O         50.26959        40.03532         1.31515
O         33.30490        32.36015        -1.99654
O         46.09987        35.59304         1.15153
O         33.40840        42.31213        -1.88694
O         40.33607        41.97303         2.01185
O         40.42577        39.46966         1.74875
O         46.29268        39.59070        -2.04791
O         38.94267        46.81098        -1.54286
O         37.80358        40.97226        -1.75095
O         49.80121        33.08209         1.12683
O         42.65851        36.55168        -1.39299
O         36.22422        38.48330        -1.23033
O         47.69121        44.61679        -1.63954
O         49.48131        31.58879        -2.00871
O         38.07420        26.72192         2.61218
O         31.78495        35.27006         1.06996
O         31.90946        39.35932        -2.53978
H         32.02776        40.22748        -2.98054
O         31.40391        42.36869         1.23752
H         30.53586        42.67440         1.56984
O         34.33781        28.74754        -1.57429
H         33.72761        29.13836        -2.23315
O         51.67102        37.92732         1.84383
H         52.29318        38.57566         2.23694
O         45.06962        37.27741        -1.92469
H         45.40423        38.15034        -2.29530
O         49.10502        39.87262        -2.21973
H         48.20538        39.72070        -2.61004
O         34.74353        31.41428         1.92306
H         35.39494        31.96742         2.41926
O         42.83756        32.35162        -1.26479
H         42.74544        33.08449        -1.91104
O         34.33848        35.62007        -1.55230
H         33.84834        35.02194        -2.15721
O         52.23901        33.90037         1.24874
H         51.44122        33.82318         1.82440
O         39.69233        39.31435        -1.69987
H         39.18818        39.91305        -2.30438
O         46.11993        33.47595        -1.82432
H         46.82651        33.87760        -2.37808
O         46.73237        38.16768         1.25390
H         46.62260        37.26355         1.64197
O         47.53518        37.50995        -2.27250
H         48.37840        37.21904        -2.68727
O         51.25209        35.09925        -2.03004
H         51.09157        35.99195        -2.40774
O         50.38445        35.67222         1.56372
H         51.01608        36.31167         1.97985
O         34.55334        28.80188         2.01222
H         35.09353        28.27809         2.63847
O         33.61277        38.81534         1.82386
H         33.97779        38.18968         2.48927
O         49.03982        42.32129        -2.27943
H         48.29387        42.73116        -2.76735
O         43.71380        46.16922         3.38910
H         44.37581        45.49671         3.68095
