         429
 CSIRO Nanostructure Databank - Neutral Graphene Oxide Data Set
C          1.24828         2.01216        -0.20055
C          1.16360         3.37675        -0.31064
C          2.48681         1.32748        -0.30707
C          2.31292         4.16493        -0.75567
C          1.16092         6.37405        -0.62442
C          1.16646         7.80335        -0.74452
C          2.31821         5.64191        -0.58507
C          2.32725         8.52741        -0.73786
C          1.17898        10.74939        -1.28936
C          1.20845        12.11659        -1.22278
C          2.44116         9.93005        -1.31357
C          2.41173        12.87978        -1.13326
C          1.23787        15.07708        -1.31148
C          1.26753        16.44924        -1.38089
C          2.43530        14.30168        -1.14270
C          2.49822        17.16054        -1.29885
C          2.55647        18.57569        -1.43952
C          3.68574         2.01863        -0.47801
C          3.66678         3.45027        -0.82024
C          4.94394         1.39187        -0.30085
C          4.93482         4.21039        -0.70825
C          3.60561         6.31977        -0.36210
C          3.59020         7.85662        -0.38490
C          4.90440         5.63313        -0.58006
C          4.88001         8.56851        -0.54413
C          3.56716        10.71818        -0.61085
C          3.72254        12.12749        -1.20619
C          4.87896         9.96873        -0.60891
C          4.88843        12.84995        -0.56712
C          3.67619        14.99568        -0.99171
C          3.70842        16.42530        -1.09478
C          4.88123        14.29152        -0.59852
C          4.93643        17.12401        -1.02973
C          3.76030        19.24210        -1.40564
C          4.98762        18.52939        -1.20882
C          6.16325         2.04922        -0.49860
C          6.15576         3.49997        -0.74359
C          7.34700         1.27700        -0.18312
C          7.36372         4.28622        -0.78121
C          6.09512         6.39042        -0.51012
C          6.09786         7.84453        -0.47966
C          7.35144         5.70133        -0.56119
C          7.32619         8.57083        -0.45353
C          6.08580        10.69020        -0.47988
C          6.05378        12.14245        -0.34487
C          7.30780         9.98737        -0.39078
C          7.23235        12.82919         0.21825
C          6.04939        15.00457        -0.32402
C          6.21813        16.34404        -0.97626
C          7.18669        14.35250         0.32278
C          7.41539        17.13129        -0.52523
C          6.23602        19.20164        -1.19316
C          7.44539        18.53380        -0.85301
C          8.61024         1.58296        -0.66215
C          8.61210         3.70264        -1.06688
C          9.90878         1.20112        -0.23895
C          9.84661         4.27419        -0.70554
C          8.58302         6.39438        -0.44214
C          8.58792         7.84595        -0.37481
C          9.82239         5.67741        -0.42515
C          9.78182         8.52062        -0.22127
C          8.56942        10.76643        -0.32112
C          8.56472        12.17793         0.18044
C          9.85019         9.98789        -0.25264
C          9.71561        12.84342         0.48635
C          8.41451        15.17334         0.72382
C          8.55489        16.48111        -0.04136
C          9.76234        14.32026         0.90775
C          9.79213        17.16660         0.00964
C          8.65710        19.23603        -0.73532
C          9.85072        18.57513        -0.33553
C         11.05521         2.02052        -0.39015
C         11.04935         3.49516        -0.52160
C         12.30964         1.36754        -0.26707
C         12.23892         4.20605        -0.29380
C         11.06609         6.35053        -0.27174
C         11.04354         7.79222         0.15336
C         12.26157         5.63279        -0.29482
C         12.27780         8.57242        -0.23500
C         11.07267        10.66544         0.21896
C         11.01508        12.07535         0.75301
C         12.26930         9.99695         0.18116
C         12.28873        12.81896         0.40114
C         10.98093        15.03563         0.32351
C         11.00549        16.40376         0.17119
C         12.28331        14.29962         0.09180
C         12.31398        17.13622        -0.09822
C         11.05127        19.27754        -0.21493
C         12.23774        18.59027         0.37847
C         13.52712         2.04875        -0.11433
C         13.45727         3.50318         0.26323
C         14.75614         1.38876        -0.09578
C         14.77252         4.24115         0.14647
C         13.59500         6.32013        -0.55453
C         13.57380         7.83947        -0.38782
C         14.79226         5.64037         0.06524
C         14.81238         8.55695        -0.01327
C         13.53086        10.68550         0.30375
C         13.48290        12.14116         0.36535
C         14.74081         9.97889         0.16516
C         14.77681        12.90642         0.17188
C         13.42031        15.00516         0.87362
C         13.51867        16.46677         0.52946
C         14.73659        14.31621         0.67726
C         14.68975        17.15895         0.70050
C         13.54526        19.29019         0.15713
C         14.74029        18.61394         0.44226
C         15.97956         2.08128         0.13785
C         15.97907         3.51798         0.30171
C         17.20388         1.40766         0.10291
C         17.21601         4.20149         0.49965
C         15.99938         6.35997         0.24423
C         16.00084         7.81310         0.21397
C         17.20882         5.63991         0.51506
C         17.23199         8.48597         0.49191
C         16.00344        10.73221         0.29034
C         15.98118        12.15631         0.65593
C         17.27197         9.96922         0.46973
C         17.16665        12.84317         1.00026
C         15.92909        15.00144         0.90406
C         15.93583        16.46241         0.99927
C         17.14193        14.27544         1.07938
C         17.13474        17.15861         1.08938
C         15.94813        19.30197         0.57574
C         17.14626        18.66382         1.20542
C         18.44324         2.03891         0.38592
C         18.43400         3.46468         0.68406
C         19.61479         1.25185         0.14938
C         19.63173         4.21478         0.94747
C         18.43302         6.35389         0.68349
C         18.41960         7.77913         0.67503
C         19.66226         5.64571         0.85922
C         19.70513         8.51207         0.77494
C         18.34142        10.62836         1.31531
C         18.39757        12.13270         1.21005
C         19.67585         9.97964         1.03714
C         19.64104        12.79877         1.40533
C         18.35626        15.01664         1.43130
C         18.39286        16.46656         1.16491
C         19.65544        14.27431         1.56416
C         19.61315        17.11572         0.98238
C         18.43157        19.26963         0.72321
C         19.61525        18.54781         0.68377
C         20.87225         1.55117         0.70307
C         20.84721         3.58525         1.30425
C         22.17497         1.25905         0.28431
C         22.12044         4.17800         1.15568
C         20.90688         6.32631         1.04185
C         20.94686         7.76660         1.08543
C         22.13255         5.60783         1.14255
C         22.10154         8.43464         1.42891
C         20.86584        10.66436         1.61762
C         20.85759        12.13525         1.54310
C         22.13247         9.88927         1.71566
C         22.15983        12.85856         1.81470
C         20.91832        14.99481         1.28575
C         20.87265        16.39247         0.98872
C         22.12467        14.28864         1.29494
C         22.08189        17.06196         0.69348
C         20.85403        19.18603         0.39166
C         22.07387        18.48763         0.41132
C         23.33608         2.01806         0.65968
C         23.33461         3.42406         1.03733
C         24.58327         1.39208         0.43599
C         24.57160         4.15285         1.04396
C         23.37364         6.27448         1.33853
C         23.33278         7.69108         1.70186
C         24.59480         5.58020         1.27230
C         24.64817         8.46220         1.82345
C         23.42050        10.61891         1.61864
C         23.33543        12.07676         1.19145
C         24.59934         9.94635         1.65879
C         24.64991        12.81701         1.28809
C         23.34407        14.94961         0.97675
C         23.31768        16.34804         0.67407
C         24.60181        14.25093         1.03400
C         24.53777        17.02770         0.36203
C         23.29093        19.15355         0.16779
C         24.53110        18.46729         0.12445
C         25.80893         2.06996         0.52494
C         25.80298         3.48911         0.78708
C         27.03136         1.36462         0.33271
C         27.01482         4.23054         0.71088
C         25.84488         6.32299         1.28479
C         25.87193         7.72826         1.46885
C         27.06381         5.61705         0.97826
C         27.08942         8.48324         1.29262
C         25.90281        10.68652         1.81344
C         25.84664        12.13163         1.35877
C         27.10756         9.90572         1.32734
C         27.10939        12.80353         1.14236
C         25.79234        14.96114         0.83126
C         25.75574        16.32485         0.43845
C         27.11495        14.31813         1.18790
C         26.99341        16.97217        -0.03287
C         25.72436        19.18156        -0.04024
C         26.98728        18.51173        -0.28989
C         28.25886         2.02980         0.26677
C         28.22939         3.51103         0.29319
C         29.48579         1.35528         0.07544
C         29.54670         4.24053         0.42364
C         28.33121         6.32979         1.00692
C         28.32022         7.77863         1.13238
C         29.53627         5.62922         0.89500
C         29.52173         8.51783         1.03553
C         28.30553        10.62428         1.12090
C         28.28088        12.07768         1.04225
C         29.54231         9.93034         0.98278
C         29.53602        12.74229         0.60364
C         28.30026        14.97737         0.53592
C         28.29804        16.31887         0.19927
C         29.53541        14.21566         0.33843
C         29.51270        17.02426        -0.08125
C         28.28172        19.17283        -0.27690
C         29.49159        18.45134        -0.31442
C         30.74791         1.99693         0.16550
C         30.77142         3.40981         0.61403
C         31.96053         1.32886        -0.04232
C         32.11043         4.13424         0.69398
C         30.83990         6.29691         1.03792
C         30.80604         7.79699         1.04714
C         32.10405         5.61577         0.61700
C         31.95872         8.52216         0.45194
C         30.82276        10.65131         0.91654
C         30.84229        12.09195         0.82611
C         32.01163         9.96178         0.73657
C         32.02325        12.81343         0.65760
C         30.80945        14.94459         0.27973
C         30.76887        16.34765         0.05948
C         32.02661        14.23757         0.37133
C         31.99944        17.04962        -0.07988
C         30.72440        19.13607        -0.47744
C         31.98073        18.48698        -0.35480
C         33.22320         2.00807        -0.05940
C         33.27256         3.38910         0.21934
C         34.44594         1.30466        -0.36623
C         34.51960         4.12935         0.05174
C         33.22429         6.32162         0.27309
C         33.19249         7.79208         0.06075
C         34.52963         5.64843         0.08961
C         34.45727         8.55750        -0.05433
C         33.32264        10.60634         0.78250
C         33.32641        12.13816         0.77984
C         34.51947         9.89819         0.25581
C         34.56465        12.82622         0.37046
C         33.25955        14.94618         0.21046
C         33.21449        16.34115        -0.00716
C         34.53616        14.22599         0.20695
C         34.47236        17.08335        -0.37862
C         33.17106        19.20752        -0.43415
C         34.45739        18.57838         0.02794
C         35.64806         1.97025        -0.63406
C         35.60458         3.44991        -0.70340
C         36.87867         1.34976        -0.94666
C         36.83052         4.24518        -1.01272
C         35.68234         6.38060        -0.47789
C         35.59344         7.86140        -0.75888
C         36.85285         5.70992        -0.77320
C         36.91698         8.55910        -0.58477
C         35.75755        10.64683         0.10773
C         35.79111        12.09734         0.25762
C         36.91842         9.93943        -0.27600
C         37.00925        12.82473         0.15943
C         35.76436        14.92452         0.09327
C         35.73007        16.39334         0.09173
C         37.01637        14.25352         0.11587
C         37.00364        17.15106        -0.11925
C         35.69304        19.22525        -0.55567
C         36.89380        18.54054        -0.64437
C         38.06742         2.08633        -1.19672
C         38.09026         3.51407        -1.18495
C         39.30771         1.40645        -1.43715
C         39.28125         4.24635        -1.34718
C         38.08987         6.41340        -1.01357
C         38.11456         7.83844        -0.86015
C         39.28696         5.69531        -1.28412
C         39.36106         8.52053        -1.03943
C         38.22393        10.62639        -0.23360
C         38.28966        12.09610         0.05562
C         39.34397         9.99428        -0.99062
C         39.53866        12.83724        -0.26966
C         38.25745        14.99658        -0.00598
C         38.26156        16.38339        -0.25335
C         39.56463        14.25734         0.26307
C         39.41596        17.10069        -0.66326
C         38.05686        19.10538        -1.22341
C         39.29446        18.41728        -1.23223
C         40.47354         2.10534        -1.62651
C         40.50061         3.53478        -1.58094
C         41.69425         4.26420        -1.77378
C         40.52413         6.39507        -1.45676
C         40.54177         7.84036        -1.35059
C         41.70110         5.65006        -1.71568
C         41.77087         8.60451        -1.45837
C         40.61382        10.77725        -1.19554
C         40.65999        12.20298        -0.73369
C         41.82907         9.95705        -1.34059
C         41.91427        12.93109        -0.84707
C         40.83538        15.02837        -0.11691
C         40.74983        16.49147        -0.56963
C         42.00981        14.24208        -0.53538
C         41.85327        17.13391        -1.28546
C         40.42686        19.01637        -1.84265
C         41.66813        18.35574        -1.89368
O         21.31969        10.18132         2.93900
O         31.42778         3.60300         1.89182
O         18.93447        14.68871         2.77741
O         33.52824        11.36873         2.01457
O          6.85269        13.49708         1.47715
O         41.12941        16.08211         0.83652
O          2.89919         3.75327        -2.04037
O         34.94385         4.84137         1.26326
O         29.39633        13.22736        -0.79264
O         36.41788        16.99210         1.23755
O         39.63255        10.61258        -2.29266
O         32.18249         8.18656        -0.96758
O         26.88325        17.48982        -1.36821
O         38.55155        11.09136         1.11638
O         23.95536         7.97381         3.01574
O         28.91317         4.08327        -0.88736
O         31.04998         7.06614         2.28747
O         35.80863         3.94382        -2.06816
O         12.84554         8.40638        -1.56239
O         19.88008         9.51155        -0.32052
O          9.38551        10.59581        -1.53541
O          3.56643         7.11643         0.87983
O         16.99139        10.52534        -0.84107
O          8.62360         2.49072        -1.74519
O         20.79232         2.32624         1.88749
O         12.57089        14.43488        -1.33300
H         13.40340        13.92923        -1.53375
O         14.95848        13.03468        -1.31325
H         15.33482        12.18523        -1.63815
O         12.02546        18.52607         1.83608
H         12.01491        19.44472         2.17802
O         11.09912         7.77507         1.62344
H         10.32255         7.27212         1.94843
O         13.80968         6.07393        -1.98298
H         13.33972         6.79549        -2.46412
O         26.10184        10.78664         3.26999
H         25.88682         9.91302         3.66290
O          6.54834        16.02870        -2.39781
H          6.50928        16.87326        -2.89665
O         13.19887         3.49609         1.72253
H         13.90746         2.96070         2.13994
O         13.04981        14.88510         2.28217
H         13.68721        15.41274         2.80822
O         11.05551        11.88685         2.20688
H         10.94419        12.78059         2.61698
O         23.01204        12.02681        -0.23144
H         23.78289        11.66656        -0.71798
O          2.82693         9.71661        -2.71363
H          2.07457         9.28491        -3.17073
O         27.28988        14.63037         2.62659
H         26.65480        14.07187         3.12653
O          8.06950        15.68279         2.04913
H          7.53820        14.97672         2.48809
O          4.07693        12.05511        -2.61293
H          3.57251        11.30896        -3.01955
O         12.53257        17.16394        -1.52626
H         12.57374        16.21714        -1.81919
O         17.98612        10.29797         2.69323
H         18.68570        10.65329         3.28298
O         17.06548        18.96405         2.66101
H         17.80548        18.48579         3.09354
O         22.39218        12.91769         3.24153
H         21.58209        13.26073         3.67325
O         34.54961        17.03647        -1.83522
H         33.72739        17.43699        -2.19057
O         10.04889        14.30910         2.33182
H          9.66586        15.14431         2.70059
O         34.45895        18.72390         1.47233
H         35.26418        18.25675         1.80811
O         35.27033         7.98203        -2.19869
H         35.98333         7.52898        -2.69828
O         39.60272        14.11447         1.71453
H         39.94377        14.96713         2.06934
O          3.16931        10.89991         0.76829
H          3.16137        10.02222         1.20605
H          0.35503         1.43721         0.08302
H          0.23808         3.89436        -0.02189
H          2.51568         0.24441        -0.12034
H          0.19484         5.86167        -0.73497
H          0.20819         8.29093        -0.97442
H          0.20595        10.24346        -1.37395
H          0.24354        12.64552        -1.22562
H          0.27093        14.56474        -1.40508
H          0.33442        17.01317        -1.52537
H          1.62080        19.13271        -1.59410
H          4.95858         0.32646        -0.02563
H          3.79449        20.33407        -1.52990
H          7.22044         0.42115         0.49712
H          6.26262        20.28620        -1.37308
H         10.04669         0.21948         0.24097
H          8.68667        20.31326        -0.95410
H         12.32680         0.26751        -0.31714
H         11.08528        20.35315        -0.44780
H         14.79065         0.30477        -0.28413
H         13.56184        20.38039        -0.00120
H         17.20706         0.33119        -0.12489
H         15.97503        20.38630         0.38720
H         19.51346         0.38409        -0.52013
H         18.45533        20.35348         0.53285
H         22.32969         0.43145        -0.42472
H         20.85601        20.26407         0.17201
H         24.59293         0.32655         0.16204
H         23.27739        20.23728        -0.02043
H         26.99985         0.26984         0.22847
H         25.70680        20.28000         0.01494
H         29.46340         0.26894        -0.10041
H         28.31364        20.27132        -0.22870
H         31.93953         0.26024        -0.30300
H         30.70672        20.22181        -0.65432
H         34.41731         0.20540        -0.40673
H         33.13602        20.29355        -0.61214
H         36.93156         0.25054        -0.96820
H         35.64576        20.27131        -0.89612
H         39.31147         0.30712        -1.46560
H         38.00419        20.11106        -1.66521
H         41.41473         1.56752        -1.81248
H         42.63056         3.72152        -1.96842
H         42.65519         6.17203        -1.86755
H         42.71725         8.06003        -1.58165
H         42.81431        10.44431        -1.32807
H         42.81267        12.39309        -1.17741
H         42.98082        14.75201        -0.59732
H         42.84912        16.67290        -1.26796
H         40.32074        20.01111        -2.29717
H         42.51296        18.84140        -2.40215
