         410
 CSIRO Nanostructure Databank - Neutral Graphene Oxide Data Set
C         27.91756        27.45124        -0.94068
C         27.91227        28.86484        -0.80700
C         26.69811        29.60347        -0.76403
C         27.94189        31.69764        -0.54736
C         26.71696        30.97296        -0.64257
C         27.94835        33.14621        -0.43075
C         26.73771        33.89355        -0.48588
C         27.94890        36.01103        -0.29375
C         26.74150        35.26445        -0.37679
C         27.85932        37.43531        -0.04757
C         26.74174        38.04441         0.65334
C         27.84034        40.27146         0.55859
C         26.71582        39.37576         0.91347
C         27.89109        41.69385         1.01830
C         26.86054        42.38774         1.83452
C         27.98230        44.47158         1.19001
C         26.92859        43.73381         1.89179
C         27.77493        45.80338         0.79870
C         30.35925        27.41691        -0.87664
C         29.10262        26.75049        -0.96250
C         30.36654        28.82182        -0.78505
C         29.15223        29.55916        -0.72006
C         30.41460        31.68969        -0.39950
C         29.16366        30.98819        -0.58117
C         30.41067        33.10047        -0.18000
C         29.16526        33.84370        -0.27230
C         30.46178        35.91983        -0.09805
C         29.19082        35.28282        -0.27874
C         30.68061        37.25426        -0.43318
C         28.90109        38.29566        -0.40512
C         30.36860        40.20597         0.18386
C         29.10428        39.60960         0.11410
C         30.44760        41.62798         0.61821
C         29.23730        42.35847         1.06415
C         30.25486        44.48083         0.17641
C         29.19714        43.82515         0.86029
C         29.89979        45.73987        -0.36427
C         28.70531        46.40119        -0.04522
C         32.77763        24.51818        -0.65104
C         31.61074        25.24166        -0.80515
C         32.84658        27.31931        -0.62358
C         31.61051        26.66022        -0.79651
C         32.92619        28.79071        -0.69517
C         31.63664        29.56904        -0.79119
C         32.86921        31.63700        -0.09387
C         31.64139        30.98976        -0.39258
C         32.85570        33.04681         0.16351
C         31.62523        33.74397         0.12217
C         32.89792        35.88258         0.52622
C         31.56944        35.16983         0.59774
C         32.83951        37.35166         0.68151
C         31.69886        38.07813         0.11768
C         32.86500        40.24141         0.36858
C         31.63387        39.49553         0.16367
C         32.86020        41.69798         0.26783
C         31.64280        42.42223         0.24886
C         32.83046        44.53050        -0.10844
C         31.58889        43.82660         0.06050
C         32.95171        45.95215        -0.56253
C         31.86385        46.86160        -0.97343
C         33.20456        48.88520        -0.67780
C         32.04491        48.20280        -1.17324
C         35.28903        23.01711        -0.24861
C         35.26132        24.42621        -0.34248
C         34.02279        25.16464        -0.47010
C         35.29669        27.28744        -0.26492
C         34.04940        26.58576        -0.45160
C         35.28137        28.70700        -0.01909
C         34.12876        29.47032        -0.17006
C         35.27573        31.59292         0.43732
C         34.10263        30.89900         0.05521
C         35.27542        33.01341         0.54594
C         34.08688        33.74530         0.43329
C         35.37531        35.92353         0.69815
C         34.09631        35.20392         0.57859
C         35.39549        37.37519         0.69485
C         34.13153        38.11963         0.78170
C         35.34349        40.24240         0.57529
C         34.09739        39.56168         0.49913
C         35.28882        41.70074         0.71646
C         34.06203        42.43410         0.35101
C         35.33717        44.55495         0.30297
C         34.05743        43.84357         0.17727
C         35.38353        45.96710         0.31148
C         34.24380        46.71844        -0.23486
C         35.22485        48.81976         0.84257
C         34.24149        48.18706        -0.12823
C         35.33835        50.32233         0.68413
C         37.72201        23.00811        -0.18436
C         36.48754        22.33200        -0.11724
C         37.71603        24.40488        -0.32109
C         36.49635        25.13465        -0.32848
C         37.77371        27.28402        -0.17269
C         36.51325        26.57433        -0.25618
C         37.80057        28.67987         0.09117
C         36.52901        29.34145         0.43895
C         37.82593        31.52709         0.58518
C         36.52380        30.83467         0.70548
C         37.82574        32.96897         0.91408
C         36.52549        33.73189         0.90854
C         37.85489        35.89308         0.83332
C         36.57277        35.21223         0.78176
C         37.83992        37.37610         0.95758
C         36.57828        38.10389         0.71242
C         37.83155        40.27984         0.59755
C         36.58022        39.55272         0.68247
C         37.84620        41.68546         0.51123
C         36.61522        42.44438         0.74150
C         37.80540        44.55495         0.31692
C         36.57198        43.87455         0.44376
C         37.81612        45.97302         0.33785
C         36.59847        46.65896         0.47209
C         37.74332        48.81473         0.10766
C         36.62581        48.12176         0.88532
C         37.68052        50.28407        -0.12384
C         36.43893        50.98264         0.29487
C         40.26594        20.17072        -0.12834
C         39.07832        20.81716        -0.21110
C         40.28063        22.98735        -0.18211
C         39.00049        22.27311         0.16906
C         40.29426        24.40747        -0.51513
C         38.96997        25.15077        -0.57290
C         40.23323        27.29902        -0.35296
C         39.00192        26.60279        -0.35080
C         40.23568        28.72907        -0.27560
C         38.99691        29.41470         0.00169
C         40.18235        31.61732        -0.16453
C         38.97598        30.84805         0.23995
C         40.33017        33.02999         0.30632
C         39.10843        33.73348         0.82409
C         40.37814        35.89195         0.69441
C         39.05919        35.20922         0.78704
C         40.41602        37.39833         0.73501
C         39.13913        38.15491         0.92858
C         40.28608        40.24003         0.22791
C         39.10530        39.58452         0.53558
C         40.27140        41.67822        -0.23480
C         39.03788        42.42264         0.21549
C         40.28094        44.54815        -0.23836
C         39.03184        43.80838         0.18375
C         40.29700        46.01174         0.13896
C         39.07398        46.70272         0.24278
C         40.25585        48.83762         0.17840
C         39.05463        48.11554         0.19948
C         40.20103        50.32603         0.18170
C         38.96514        51.03299        -0.19127
C         40.23138        53.07197        -0.71509
C         39.00984        52.37533        -0.50201
C         42.71892        20.22265         0.32740
C         41.50141        20.88647         0.11742
C         42.74132        23.04437         0.02214
C         41.49732        22.31987         0.00635
C         42.75031        24.47464        -0.14784
C         41.53012        25.17983        -0.34169
C         42.72342        27.32537        -0.35179
C         41.49595        26.59460        -0.38615
C         42.71892        28.75763        -0.42136
C         41.46281        29.42774        -0.43400
C         42.71702        31.63840        -0.78116
C         41.42128        30.88656        -0.61831
C         42.69828        33.13756        -0.67209
C         41.47683        33.84042        -0.18735
C         42.66588        35.97421        -0.56335
C         41.51021        35.18209         0.02905
C         42.75498        37.42044        -0.13012
C         41.58359        38.12812         0.18985
C         42.77603        40.25904        -0.00015
C         41.54953        39.54069         0.15415
C         42.78489        41.69641         0.09618
C         41.55755        42.42240         0.07191
C         42.78558        44.55044         0.15715
C         41.56109        43.81507         0.08916
C         42.78419        45.98859         0.14342
C         41.51809        46.72601         0.18143
C         42.75730        48.91566         0.31678
C         41.48912        48.14763         0.24136
C         42.77551        50.32809        -0.12073
C         41.52612        51.09211        -0.01361
C         42.69210        53.02880        -1.02400
C         41.45727        52.44009        -0.59030
C         43.90812        20.93622         0.44086
C         45.19330        23.08511         0.33293
C         43.94713        22.34601         0.27907
C         45.21420        24.47738         0.02554
C         43.97575        25.18757        -0.17121
C         45.18440        27.33077        -0.39860
C         43.96605        26.61599        -0.32162
C         45.20820        28.75254        -0.39656
C         43.96165        29.48376        -0.42471
C         45.18386        31.64326        -0.46541
C         43.99218        30.91615        -0.53494
C         45.20789        33.08988        -0.53100
C         43.98581        33.85050        -0.50037
C         45.20978        35.97697        -0.56605
C         43.98448        35.23612        -0.46572
C         45.18756        37.38690        -0.55759
C         43.97335        38.11500        -0.29413
C         45.23370        40.26506        -0.18881
C         43.99199        39.54305        -0.16422
C         45.23207        41.64944         0.06854
C         44.01997        42.39514         0.17671
C         45.24837        44.56957         0.17939
C         44.02728        43.84140         0.21787
C         45.24897        45.97695         0.00973
C         44.00513        46.67547         0.07308
C         45.26388        48.86006        -0.26085
C         44.05527        48.14572         0.19590
C         45.21137        50.22998        -0.55304
C         43.93900        50.95438        -0.53905
C         43.86753        52.33388        -0.97703
C         47.60723        23.13839         0.61121
C         46.41295        22.44890         0.65684
C         47.65926        24.49054         0.18304
C         46.45126        25.16359        -0.07986
C         47.70431        27.34005        -0.38851
C         46.44984        26.55989        -0.66314
C         47.70543        28.73217        -0.36109
C         46.45305        29.44230        -0.36068
C         47.70854        31.58210        -0.66012
C         46.46493        30.92449        -0.09163
C         47.68584        33.07784        -0.79720
C         46.42022        33.80676        -0.59865
C         47.69334        35.91009        -0.73247
C         46.45179        35.23492        -0.65313
C         47.73476        37.35872        -0.92969
C         46.41276        38.14450        -0.82880
C         47.69462        40.25834        -0.48535
C         46.47640        39.58156        -0.46371
C         47.75446        41.65447        -0.18077
C         46.52144        42.32356         0.25094
C         47.78152        44.53733         0.00149
C         46.52845        43.85389         0.34237
C         47.75104        46.01524         0.06266
C         46.48041        46.72467        -0.09020
C         47.72242        48.84263        -0.58363
C         46.49665        48.12703        -0.30033
C         47.63304        50.24162        -0.85678
C         46.43300        50.90363        -0.86203
C         50.14804        24.52192         0.23080
C         48.94256        25.15703         0.00129
C         50.27599        27.31667        -0.38644
C         48.95584        26.56338        -0.43855
C         50.22845        28.79224        -0.26732
C         48.98342        29.46891        -0.31390
C         50.21822        31.59036        -0.45779
C         49.00182        30.87844        -0.42335
C         50.20163        33.04645        -0.72873
C         48.95050        33.81181        -0.69552
C         50.17817        35.95076        -0.41540
C         48.94706        35.20423        -0.64379
C         50.15731        37.41666        -0.39762
C         48.99013        38.09253        -0.68894
C         50.21427        40.29465        -0.52483
C         48.96487        39.57776        -0.97125
C         50.20757        41.68516        -0.44352
C         48.94471        42.39124        -0.31059
C         50.17800        44.52616        -0.76572
C         48.94100        43.83063        -0.23889
C         50.26090        46.00759        -0.52509
C         49.05057        46.77556        -0.21906
C         50.20180        48.79454        -1.00703
C         48.97437        48.17755        -0.62963
C         51.38576        25.21226         0.24908
C         52.71952        27.30749         0.15931
C         51.47745        26.58057         0.05374
C         52.71749        28.74005        -0.17370
C         51.44514        29.50397        -0.20670
C         52.70502        31.68077        -0.05170
C         51.46280        30.92183        -0.26836
C         52.66771        33.06893         0.02106
C         51.48467        33.83342        -0.41929
C         52.49832        36.00264         0.43490
C         51.35650        35.27467        -0.15865
C         52.57742        37.45701         0.22487
C         51.40391        38.14647        -0.20096
C         52.65272        40.28284        -0.16907
C         51.42395        39.56565        -0.31420
C         52.68724        41.68484        -0.22160
C         51.45382        42.41402        -0.35055
C         52.69064        44.54240        -0.46005
C         51.46389        43.81019        -0.45371
C         52.71121        45.95161        -0.68298
C         51.44866        46.68714        -0.75726
C         51.39654        48.11015        -0.96775
C         55.09994        27.39563         0.76129
C         53.92075        26.67959         0.48928
C         55.13553        28.78747         0.71451
C         54.01393        29.52818         0.11983
C         55.08078        31.64333         0.76480
C         53.93825        30.98772         0.29509
C         55.16487        33.11573         0.68906
C         53.89358        33.84207         0.29415
C         55.02914        36.02590         0.92519
C         53.77749        35.26659         0.71897
C         55.01089        37.42297         0.79416
C         53.81436        38.10430         0.36993
C         55.20602        40.28344         0.18884
C         53.90227        39.51645        -0.03997
C         55.15056        41.76112         0.19441
C         53.92913        42.41951        -0.09111
C         55.13873        44.57167        -0.13401
C         53.91687        43.84074        -0.22228
C         55.13192        45.96958        -0.38320
C         53.95203        46.63128        -0.67044
C         56.23179        29.52944         1.24191
C         56.21270        30.90143         1.23658
C         56.18963        33.90558         1.39654
C         56.16375        35.26872         1.38548
C         56.18409        38.21817         1.11643
C         56.26518        39.55276         0.90465
C         56.33120        42.51753         0.38369
C         56.33714        43.88635         0.19736
O         47.01247        37.82663        -2.13771
O         27.44495        41.39254        -0.34907
O         30.64177        46.33617        -1.38208
O         38.48732        37.86815         2.19380
O         54.94564        33.61985        -0.68746
O         40.89838        50.94367         1.30509
O         40.80006        36.60642         1.91100
O         37.10974        33.24506         2.16913
O         36.45147        29.87230         1.81004
O         40.42569        31.38046        -1.58418
O         33.32826        37.79876         1.98578
O         35.89931        42.12826         1.98469
O         47.60066        32.14506        -1.98449
O         52.80197        35.50185         1.80163
O         37.05732        48.11253         2.22612
O         39.61826        24.71803        -1.81338
O         29.81530        37.84373        -1.37300
O         53.65075        29.09680        -1.23349
O         51.10639        33.46635        -1.79357
O         48.57580        46.53108         1.16864
O         34.01461        46.15102        -1.57608
O         49.73873        26.82301        -1.66200
O         37.44746        49.30481        -1.23113
O         40.12511        33.17679         1.74635
O         30.14183        41.82487         2.07865
O         54.87356        39.72771        -1.12863
O         46.61533        43.02068         1.54225
O         42.67330        32.47700        -1.98812
O         32.46542        29.32722        -1.99156
O         43.56373        48.62658         1.50579
O         48.95630        39.71165        -2.43319
H         48.22104        39.13583        -2.76050
O         34.63514        48.57968         2.14138
H         35.42485        48.39278         2.72757
O         42.35642        36.06498        -1.99925
H         42.51668        35.18229        -2.39943
O         46.45382        26.34115        -2.13119
H         46.74710        27.17451        -2.55868
O         40.19204        41.63531        -1.70113
H         40.14517        42.57635        -2.00464
O         40.22178        44.52765        -1.72506
H         40.95778        45.08597        -2.05660
O         38.98186        22.29279         1.65759
H         39.72334        21.72681         1.96402
O         50.01906        44.42933        -2.23969
H         50.88354        44.65317        -2.64681
O         31.22078        35.12357         2.02485
H         32.02148        34.85972         2.52585
O         46.61726        31.08310         1.36874
H         45.86383        30.62617         1.79935
H         26.95944        26.91770        -1.01790
H         25.74133        29.06595        -0.82919
H         25.75952        31.50823        -0.60844
H         25.77523        33.38146        -0.61000
H         25.78461        35.80352        -0.40922
H         25.89363        37.41457         0.95693
H         25.82933        39.82836         1.37971
H         26.03877        41.82924         2.30463
H         26.15590        44.31517         2.41672
H         26.84560        46.32332         1.06878
H         29.06388        25.65738        -1.05321
H         28.51483        47.38920        -0.48343
H         32.72580        23.42188        -0.68264
H         30.67266        24.68953        -0.94470
H         33.19298        49.98362        -0.65035
H         31.21350        48.78982        -1.58457
H         34.35064        22.44729        -0.22981
H         34.46231        50.90349         1.01265
H         36.46457        21.24370         0.02913
H         36.43954        52.08335         0.29029
H         40.32260        19.08498        -0.29800
H         38.15937        20.25432        -0.42676
H         40.19188        54.10316        -1.09434
H         38.07316        52.91061        -0.71338
H         42.73164        19.12583         0.40211
H         42.67910        54.06294        -1.39807
H         44.83634        20.37825         0.61914
H         44.78174        52.83575        -1.31859
H         48.53062        22.60501         0.87025
H         46.42674        21.39060         0.94796
H         48.54938        50.81090        -1.06062
H         46.43095        51.98038        -1.07249
H         50.17170        23.45450         0.48691
H         50.21724        49.85886        -1.27839
H         52.28259        24.63085         0.50041
H         52.32161        48.65654        -1.19423
H         55.98279        26.85003         1.12394
H         53.94005        25.59208         0.64092
H         56.07887        46.52615        -0.33896
H         53.98373        47.71429        -0.84869
H         57.10381        28.98669         1.63360
H         57.08939        31.44812         1.60763
H         57.03931        33.39032         1.86498
H         57.01994        35.80773         1.81551
H         57.02464        37.71915         1.61824
H         57.14026        40.10524         1.27559
H         57.27417        42.00370         0.61533
H         57.27489        44.45302         0.28484
