         638
 CSIRO Nanostructure Databank - Neutral Graphene Oxide Data Set
C         23.02449        69.51204        -0.51906
C         22.99390        70.92274        -0.42133
C         21.78315        71.62215        -0.14906
C         22.97623        73.73513        -0.09002
C         21.78369        73.00186        -0.00014
C         25.62247        65.29550        -0.86524
C         25.54257        66.71911        -0.98435
C         24.30066        67.40776        -0.83981
C         25.42101        69.59916        -1.00815
C         24.23277        68.82452        -0.77987
C         25.42793        70.99937        -0.86844
C         24.20692        71.67419        -0.55334
C         25.43716        73.81479        -0.39819
C         24.19867        73.08715        -0.35465
C         28.19968        61.02023        -1.18325
C         28.12640        62.48426        -1.08829
C         26.90627        63.16518        -0.99280
C         28.07204        65.31994        -1.12671
C         26.85186        64.58907        -0.98810
C         28.04462        66.81661        -0.97886
C         26.71751        67.45618        -1.28026
C         27.95445        69.74574        -1.50543
C         26.62746        68.90595        -1.45138
C         27.89914        71.10106        -0.99366
C         26.67335        71.74404        -0.85345
C         27.90367        73.89863        -0.59177
C         26.64737        73.17399        -0.58817
C         30.54005        56.94657         0.02567
C         30.62347        58.25252        -0.48076
C         29.56465        58.88345        -1.36690
C         30.62023        61.13755        -0.71135
C         29.37925        60.35910        -1.08443
C         30.64891        62.51863        -1.38876
C         29.32979        63.23600        -1.17528
C         30.59142        65.36563        -1.50131
C         29.29405        64.64121        -1.21161
C         30.56292        66.84922        -1.25121
C         29.27825        67.51877        -1.51412
C         30.50027        69.74061        -1.18556
C         29.26750        69.02107        -1.55799
C         30.45204        71.11469        -0.86316
C         29.14549        71.75141        -0.44518
C         30.37683        73.94547        -0.52621
C         29.11594        73.25337        -0.60203
C         32.77996        52.85928         1.23985
C         32.81168        54.21758         1.30903
C         31.52336        55.01552         1.35976
C         32.86305        57.03922         0.76419
C         31.63502        56.35686         0.68039
C         32.95073        58.33966         0.24202
C         31.82587        58.96121        -0.32185
C         33.04724        61.16533        -0.22605
C         31.94529        60.35933        -0.89871
C         33.14736        62.60850        -0.66389
C         31.82659        63.32383        -0.87434
C         32.98635        65.49277        -0.65124
C         31.79355        64.68480        -0.89609
C         32.98115        66.88373        -0.86367
C         31.72882        67.57727        -1.12716
C         32.93179        69.75334        -0.88842
C         31.71823        69.03181        -1.09224
C         32.90696        71.17284        -0.79002
C         31.64520        71.84340        -0.70010
C         32.84433        74.05150        -0.21204
C         31.57870        73.28041        -0.50094
C         35.34278        48.72274         0.21042
C         35.25880        50.04564         0.80021
C         34.07035        50.70938         0.88929
C         35.28447        52.80042         1.52684
C         33.98265        52.03339         1.58984
C         35.26824        54.24810         1.60177
C         34.06718        54.92945         1.47461
C         35.35377        57.08558         1.25610
C         34.01638        56.43626         1.54620
C         35.41284        58.42317         0.83711
C         34.26343        59.05065         0.09353
C         35.34811        61.27558         0.69676
C         34.12254        60.54046         0.30460
C         35.34974        62.77043         0.63026
C         34.03103        63.45075         0.28090
C         35.40279        65.52559        -0.27696
C         34.18956        64.84499        -0.26941
C         35.41321        66.93416        -0.48212
C         34.18840        67.62211        -0.70933
C         35.39981        69.76974        -0.72183
C         34.17806        69.05169        -0.77495
C         35.36759        71.20221        -0.80853
C         34.14874        71.89967        -0.75803
C         35.28642        74.07521        -0.56284
C         34.13394        73.34573        -0.58378
C         37.91516        44.82161        -1.35186
C         37.77024        46.00750        -0.42985
C         36.59866        46.70985        -0.40225
C         37.67739        48.49209         1.05756
C         36.49653        47.99295         0.25020
C         37.70426        49.99236         1.20331
C         36.50735        50.68884         1.22842
C         37.72956        52.77362         2.01379
C         36.47347        52.10354         1.52049
C         37.75143        54.25752         1.73958
C         36.54973        54.95546         1.65483
C         37.81613        57.07019         1.39530
C         36.56420        56.38644         1.48449
C         37.84047        58.47497         1.16675
C         36.63245        59.12563         0.87591
C         37.82295        61.31349         1.15954
C         36.67140        60.57084         0.45050
C         37.82895        62.76668         0.72886
C         36.65702        63.43350         0.44128
C         37.86838        65.61345         0.16794
C         36.70883        64.76218        -0.28205
C         37.84669        66.96654         0.03180
C         36.63951        67.67770        -0.38595
C         37.95926        69.76929        -0.75872
C         36.63699        69.06268        -0.55904
C         37.90785        71.26981        -0.60982
C         36.64062        71.93535        -0.94322
C         37.82621        74.14699        -0.44132
C         36.59679        73.47714        -0.84131
C         40.18222        40.43690        -1.89808
C         39.74404        41.44819        -1.09612
C         38.83438        42.54813        -1.40478
C         40.08054        44.32742         0.01066
C         38.97440        43.82069        -0.93554
C         40.19651        45.84363         0.03869
C         38.98666        46.57459         0.13263
C         40.21072        48.56000         0.86951
C         38.99020        47.89255         0.62421
C         40.20800        49.95766         1.24649
C         38.97519        50.66678         1.39584
C         40.22123        52.75558         1.69830
C         38.99461        52.05464         1.63319
C         40.23606        54.20789         1.69611
C         39.01564        54.93657         1.65962
C         40.29049        57.03269         1.25802
C         39.04402        56.35061         1.47715
C         40.31630        58.45841         1.04224
C         39.10665        59.18684         1.04992
C         40.33712        61.29381         0.67731
C         39.12649        60.59388         0.91069
C         40.30578        62.76233         0.60132
C         39.09183        63.44741         0.65923
C         40.33462        65.64345         0.57507
C         39.03668        64.93924         0.85447
C         40.31913        67.02211         0.48986
C         39.00958        67.77267         0.56295
C         40.29579        69.86903         0.10737
C         39.11125        69.15843        -0.01340
C         40.31985        71.30964        -0.11086
C         39.06529        71.99310        -0.39813
C         40.25270        74.15819        -0.16212
C         39.03886        73.45672        -0.35201
C         42.65251        36.19358        -2.33536
C         42.63341        37.54747        -2.11847
C         41.42853        38.33458        -2.08212
C         42.63408        40.25575        -1.11138
C         41.39667        39.64450        -1.64410
C         42.68325        41.53561        -0.49601
C         41.49886        42.30026        -0.13920
C         42.71948        44.36860        -0.50732
C         41.41986        43.64971        -0.20251
C         42.69342        45.85300        -0.13800
C         41.41544        46.51468         0.22670
C         42.69333        48.55971         0.94112
C         41.44291        47.88196         0.63597
C         42.69643        49.91609         1.36076
C         41.44100        50.64111         1.43908
C         42.68492        52.76675         2.07291
C         41.43585        52.03578         1.66538
C         42.71200        54.19522         1.60007
C         41.47776        54.89735         1.51037
C         42.74882        56.93193         0.73482
C         41.48267        56.29445         1.23711
C         42.76702        58.43281         0.80608
C         41.56536        59.15728         0.82603
C         42.80330        61.23938         0.05904
C         41.54779        60.58033         0.60834
C         42.79348        62.76682         0.18516
C         41.53897        63.49065         0.49770
C         42.79991        65.64417         0.62853
C         41.56373        64.90124         0.53617
C         42.75457        67.04700         0.72591
C         41.54283        67.76624         0.54818
C         42.74933        69.92896         0.49946
C         41.52167        69.18863         0.45992
C         42.74901        71.34733         0.32532
C         41.49797        72.02878         0.06971
C         42.67674        74.20683         0.12224
C         41.49597        73.48805        -0.00485
C         45.04342        33.44200        -3.24194
C         43.85065        34.13180        -2.97316
C         45.14448        36.06542        -2.18861
C         43.88828        35.44943        -2.50018
C         45.10462        37.43504        -1.74823
C         43.93464        38.31110        -2.12278
C         45.08241        40.19505        -0.91325
C         43.87059        39.58916        -1.30904
C         45.10715        41.50677        -0.39967
C         43.90647        42.18425        -0.22294
C         45.19546        44.31378         0.15848
C         43.85341        43.61984         0.25335
C         45.21987        45.71320         0.35665
C         43.97303        46.51461         0.26580
C         45.13606        48.48812         1.22916
C         43.93201        47.86392         0.86734
C         45.15171        49.84584         1.61355
C         43.93614        50.58304         1.63976
C         45.15448        52.73128         1.84805
C         43.96149        52.01503         1.81874
C         45.18297        54.16391         1.74376
C         43.95568        54.88321         1.52399
C         45.22114        56.99576         1.37093
C         43.99939        56.27317         1.26050
C         45.25544        58.40629         1.16622
C         44.08906        59.08381         0.48548
C         45.24144        61.27884         0.86906
C         44.06967        60.58993         0.59897
C         45.41406        62.73117         0.41403
C         44.09729        63.51180         0.33923
C         45.25300        65.63691         0.93689
C         44.05524        64.94089         0.72864
C         45.24927        67.08142         0.98369
C         43.95423        67.81476         1.20444
C         45.17318        69.97184         0.73675
C         43.97225        69.25682         0.74787
C         45.19192        71.37478         0.49759
C         43.96633        72.06451         0.38008
C         45.15120        74.14001        -0.42669
C         43.99884        73.57615         0.43230
C         46.26751        34.06272        -3.05480
C         47.67215        35.98462        -2.50800
C         46.37134        35.37101        -2.50038
C         47.99637        37.08944        -1.71063
C         46.17065        38.03173        -1.11230
C         47.58309        40.06996        -0.96017
C         46.33942        39.45218        -0.99147
C         47.55597        41.59310        -0.88803
C         46.42853        42.08950         0.02441
C         47.63855        44.28395         0.17907
C         46.40061        43.60201         0.09341
C         47.65787        45.65440         0.54203
C         46.42735        46.35134         0.66564
C         47.71687        48.39422         1.48860
C         46.39407        47.69930         1.26641
C         47.73149        49.85658         1.67039
C         46.42969        50.50552         1.97102
C         47.69353        52.75822         1.87185
C         46.42768        52.01922         2.03344
C         47.65802        54.13510         1.90197
C         46.41248        54.86631         1.80431
C         47.66181        57.02884         1.80880
C         46.42821        56.28760         1.69565
C         47.62822        58.44994         1.79107
C         46.42830        59.15324         1.46591
C         47.58652        61.35945         1.73977
C         46.39876        60.58785         1.35581
C         47.64328        62.82100         1.52087
C         46.52425        63.48926         1.12230
C         47.68167        65.66278         1.34087
C         46.49941        64.94486         1.12216
C         47.70091        67.09143         1.09481
C         46.43276        67.77410         0.95436
C         47.72410        69.97352         0.77741
C         46.43177        69.25345         1.00151
C         47.65730        71.38037         0.33701
C         46.46323        72.07192         0.29548
C         47.65232        74.17307        -0.19393
C         46.47024        73.48013        -0.08286
C         48.95500        38.10660        -1.88264
C         50.01942        40.20605        -1.30821
C         48.84435        39.42659        -1.32763
C         50.07864        41.55079        -0.82043
C         48.86682        42.23596        -0.51289
C         50.11867        44.25857         0.09084
C         48.88638        43.57256        -0.05906
C         50.14327        45.65174         0.44843
C         48.91609        46.35095         0.69485
C         50.15690        48.45008         1.02281
C         48.94688        47.71621         1.04390
C         50.17632        49.85562         1.35577
C         48.92133        50.55139         1.66302
C         50.15109        52.68854         1.81120
C         48.95518        52.01347         1.82498
C         50.16513        54.19473         1.64533
C         48.92794        54.87632         2.25706
C         50.15141        57.04869         1.78731
C         48.90337        56.34365         1.91696
C         50.13450        58.44974         1.73507
C         48.89745        59.14147         2.23316
C         50.12526        61.40847         1.70435
C         48.88368        60.66106         2.05601
C         50.14702        62.77714         1.70235
C         48.87856        63.54984         2.03672
C         50.13223        65.65434         1.51010
C         48.92964        64.97921         1.55866
C         50.13171        67.15609         1.61638
C         48.89556        67.77783         1.03181
C         50.21856        69.89837         0.64194
C         48.93913        69.13653         0.38619
C         50.22131        71.31142         0.19880
C         48.92504        72.05045        -0.00564
C         50.14491        74.19157        -0.11921
C         48.93552        73.52776        -0.06873
C         51.30611        42.21695        -0.65054
C         52.57712        44.22697        -0.04756
C         51.35808        43.56853        -0.19958
C         52.68694        45.62602         0.47142
C         51.36379        46.35843         0.51680
C         52.60123        48.50487         0.64701
C         51.37113        47.76009         0.72414
C         52.60494        49.88764         0.96759
C         51.38919        50.54457         1.35468
C         52.65610        52.74220         1.44165
C         51.46132        51.94702         1.92209
C         52.67123        54.13690         1.53956
C         51.46781        54.87305         2.09601
C         52.60685        57.06242         1.50605
C         51.41432        56.34906         1.75927
C         52.58607        58.44651         1.30771
C         51.40087        59.24451         1.77894
C         52.55793        61.34857         1.00203
C         51.23551        60.60753         1.05018
C         52.56313        62.81186         1.07890
C         51.37296        63.51439         1.38710
C         52.57747        65.66382         1.12013
C         51.38345        64.93989         1.40316
C         52.58565        67.12918         1.08630
C         51.41009        67.83613         1.21586
C         52.63217        70.06240         1.29656
C         51.37077        69.27704         1.02774
C         52.61701        71.47307         0.72860
C         51.46287        72.09913         0.35906
C         52.60704        74.23554        -0.04274
C         51.41389        73.53005         0.04972
C         53.74798        46.44099        -0.29044
C         54.98612        48.57399         0.16545
C         53.80368        47.86437         0.21394
C         55.02808        49.95959         0.50150
C         53.82750        50.62442         0.87258
C         55.06873        52.75774         0.96426
C         53.84237        52.04765         1.07972
C         55.08543        54.15751         1.16290
C         53.88256        54.84541         1.35870
C         55.07008        56.97703         0.87192
C         53.92845        56.33023         1.63752
C         54.98029        58.44462         0.44695
C         53.63933        59.17531         0.50350
C         55.03394        61.39514         0.84505
C         53.71606        60.65183         0.82259
C         54.91313        62.75374         0.15455
C         53.73274        63.53012         0.72300
C         54.92074        65.67951         0.25737
C         53.73025        64.93519         0.73277
C         54.99603        67.11659         0.54025
C         53.84694        67.85543         0.86964
C         55.06756        70.02015         0.64035
C         53.87809        69.28181         0.92946
C         55.09481        71.40351         0.45801
C         53.90893        72.25305         0.84116
C         55.05222        74.24693        -0.18339
C         53.87325        73.59857         0.14081
C         56.24861        50.68138         0.42007
C         57.51645        52.78890         0.51648
C         56.29596        52.05436         0.66126
C         57.59391        54.15920         0.74085
C         56.40674        54.86500         1.36582
C         57.58637        57.03110         0.75806
C         56.35596        56.31289         0.99115
C         57.50465        58.50796         0.41960
C         56.21524        59.21571         0.33315
C         57.42192        61.33958         0.08568
C         56.23202        60.61958         0.32591
C         57.44008        62.78089         0.13311
C         56.24179        63.48036         0.21519
C         57.51005        65.65908         0.03208
C         56.21744        64.92978         0.00793
C         57.54963        67.01657         0.22006
C         56.31500        67.75730         0.57361
C         57.62458        69.97322         0.31428
C         56.34266        69.26263         0.63227
C         57.59454        71.42756         0.03847
C         56.25282        72.04784        -0.26510
C         57.49823        74.18820        -0.54533
C         56.31018        73.55804        -0.24646
C         58.77163        54.88548         0.43008
C         59.97799        57.01306         0.05192
C         58.82642        56.29367         0.41401
C         59.97770        58.41964        -0.18821
C         58.67394        59.12110        -0.25073
C         59.91819        61.33555        -0.43333
C         58.62946        60.63640        -0.38256
C         59.94616        62.74386        -0.30700
C         58.69948        63.49548        -0.09259
C         59.96823        65.58488        -0.59310
C         58.71612        64.87502        -0.14106
C         60.03804        67.05149        -0.25928
C         58.86129        67.77950         0.33526
C         60.01954        69.90921        -0.49288
C         58.71709        69.15457        -0.34224
C         59.98794        71.32820        -0.69481
C         58.78574        72.07159        -0.55404
C         59.93277        74.13900        -1.12138
C         58.74851        73.47465        -0.75641
C         61.12722        59.15054        -0.46067
C         62.34630        61.28485        -0.70873
C         61.12955        60.58808        -0.56789
C         62.39005        62.69999        -0.66031
C         61.17898        63.41329        -0.41533
C         62.44967        65.59235        -0.69401
C         61.23737        64.88840        -0.13045
C         62.42160        66.98257        -0.84536
C         61.19217        67.72782        -0.55364
C         62.41059        69.86109        -1.02332
C         61.20955        69.18977        -0.63536
C         62.39589        71.27605        -1.21860
C         61.18507        72.01061        -1.05516
C         62.35551        74.09328        -1.62412
C         61.15778        73.43216        -1.26981
C         63.60460        63.41970        -0.86265
C         64.81857        65.53865        -1.30160
C         63.64464        64.84037        -0.94062
C         64.82598        66.95094        -1.41560
C         63.61283        67.68804        -1.18436
C         64.79633        69.80128        -1.65130
C         63.61048        69.11678        -1.28035
C         64.79202        71.22355        -1.80139
C         63.58815        71.95685        -1.60237
C         64.76746        74.04364        -2.15331
C         63.57005        73.38337        -1.79299
C         66.00516        67.65630        -1.75813
C         67.18839        69.76329        -2.24374
C         66.01154        69.06274        -1.88819
C         67.19513        71.16926        -2.38950
C         65.98436        71.90607        -2.17562
C         67.17935        73.98711        -2.70863
C         65.97222        73.32885        -2.34336
C         68.37438        71.87463        -2.75312
C         68.35334        73.26136        -2.90454
O         55.32950        65.31393        -1.13033
O         27.16314        69.49310        -2.68967
O         43.46166        63.36485        -0.99751
O         57.81546        58.10221         1.80429
O         46.41745        51.19265         3.26325
O         32.36886        60.22395        -2.25271
O         58.37829        59.72541        -1.53158
O         57.92821        70.92472         1.37965
O         49.64138        71.44602        -1.17036
O         47.17638        37.23268        -0.56469
O         40.34549        41.55516         0.17930
O         47.02715        47.69786         2.59739
O         47.22217        69.77943         2.13941
O         36.69580        72.78078        -2.14116
O         29.30870        68.20950        -2.78975
O         43.45903        46.61602        -1.14117
O         35.25050        62.05241         1.93878
O         48.07281        61.17780         3.17821
O         54.84013        57.35115        -0.55193
O         56.49932        68.49381         1.87812
O         42.96330        44.24688        -1.92043
H         43.39029        45.08982        -2.20792
O         42.59474        52.86823         3.55239
H         42.68104        51.95970         3.91341
O         50.12469        54.42388         0.20753
H         49.31512        53.99937        -0.14718
O         51.65168        59.57483         3.19492
H         50.85307        59.29727         3.71148
O         33.74611        62.50973        -1.97654
H         33.26391        61.74657        -2.42364
O         53.10168        59.13732        -0.86962
H         53.42363        58.29237        -1.27023
O         46.73016        41.59468         1.35823
H         45.96513        41.78252         1.94007
O         37.64619        61.22704         2.59268
H         36.80191        61.69194         2.81217
O         55.33853        61.69709         2.23690
H         55.32345        60.86279         2.75101
O         59.96277        65.50263        -2.05068
H         59.18688        66.00444        -2.37942
O         59.16009        67.96971         1.73332
H         58.33326        68.29406         2.17136
O         39.61214        43.98226         1.34731
H         39.64348        42.99944         1.40946
O         44.34403        73.95492         1.80352
H         43.65271        73.59424         2.39738
O         44.15456        38.74266        -3.51082
H         43.38433        39.29154        -3.77024
O         30.75477        65.22732        -2.96613
H         31.53622        65.75868        -3.23060
O         30.54845        61.37254         0.72448
H         29.70961        61.84444         0.91359
O         56.05711        71.69105        -1.69015
H         55.25824        72.16551        -2.00649
O         43.47365        43.65155         1.65710
H         44.20701        43.27809         2.18836
O         30.04716        58.79354        -2.72214
H         30.90345        59.31218        -2.76861
O         36.90943        60.60166        -0.97267
H         36.20162        60.04445        -1.39281
O         48.96414        54.80672         3.70830
H         49.89425        54.97763         4.00094
O         54.26406        56.44527         3.05935
H         55.08245        55.90251         3.21230
O         34.63682        58.94514        -1.33110
H         33.86219        59.33704        -1.84937
O         42.74650        60.93969        -1.38344
H         43.07682        61.74605        -1.84824
O         53.18958        45.54481         1.84618
H         52.53151        45.04746         2.37592
O         51.69361        51.77163         3.36533
H         50.88726        51.36651         3.75032
O         33.79664        51.71251         3.02952
H         33.47396        52.52931         3.46782
O         44.30884        58.80441        -0.97106
H         43.75764        59.48359        -1.44951
O         38.72849        67.93947         2.01362
H         39.49041        68.42207         2.40206
O         36.95769        64.41753        -1.68705
H         36.86996        65.23712        -2.21808
O         50.02797        67.42472         3.07044
H         49.33882        66.82722         3.43443
O         50.76090        60.35633        -0.29262
H         51.51309        59.95650        -0.80145
O         33.72222        56.74089         2.96750
H         33.67868        57.71753         3.05555
O         54.63361        62.54057        -1.25028
H         54.67886        63.42467        -1.68456
O         37.67034        52.64142         3.48615
H         36.78427        52.95284         3.77098
O         48.98082        58.91349         3.70148
H         48.36430        59.56941         4.10874
O         43.79223        67.88197         2.67361
H         44.58306        68.33999         3.03264
O         48.83311        68.89005        -1.04759
H         49.08791        69.73514        -1.49902
O         47.23742        42.07995        -2.22653
H         47.93172        41.75625        -2.83797
O         42.77018        56.62406        -0.72028
H         43.43481        57.25188        -1.11601
O         51.60317        54.80307         3.54624
H         52.44145        55.26671         3.77832
O         48.76695        63.69676         3.48613
H         48.54972        62.79779         3.83820
O         52.68853        70.23808         2.74859
H         53.43894        70.85448         2.93314
O         38.79476        65.11724         2.29486
H         38.70120        66.09277         2.44889
O         29.10737        71.51439         1.01509
H         28.35637        72.03474         1.37346
O         37.47166        47.97055         2.42151
H         36.64519        48.37329         2.76476
O         38.27635        45.35593        -2.64345
H         38.52518        44.60894        -3.22573
O         28.18226        67.05902         0.48658
H         27.50628        66.50998         0.94034
O         31.24316        55.24776         2.75926
H         31.99149        55.78956         3.11010
O         58.23093        68.87545        -1.69028
H         58.11668        69.72861        -2.16206
O         56.61211        54.83948         2.84174
H         57.46872        55.28593         3.02078
O         32.79720        75.35711        -0.79829
H         32.82098        75.25604        -1.77185
O         54.08708        72.56686         2.27634
H         53.39448        73.21733         2.52116
O         33.27281        63.62273         1.50239
H         33.61006        62.95609         2.14623
O         45.92039        62.60581        -0.94742
H         45.15354        62.72326        -1.55491
O         44.88035        73.91790        -1.81696
H         44.84889        72.95191        -1.97639
O         61.30378        65.02754         1.31884
H         62.13949        64.61827         1.62585
O         53.44518        46.45821        -1.69301
H         52.62626        46.97907        -1.82422
O         38.26810        69.56170        -2.19633
H         37.72415        70.19933        -2.70801
O         30.80607        62.36223        -2.81493
H         30.80833        63.27038        -3.20337
H         22.96172        74.82498         0.05428
H         25.41513        74.90326        -0.23753
H         27.86872        74.99895        -0.56881
H         30.37334        75.04402        -0.45271
H         32.87316        74.21647         0.90433
H         35.24268        75.14261        -0.29723
H         37.79516        75.22192        -0.20796
H         40.23890        75.25816        -0.16608
H         42.63651        75.30671         0.09754
H         45.22044        75.24498        -0.27649
H         47.63083        75.25027        -0.42014
H         50.15387        75.28378        -0.25616
H         52.58897        75.29082        -0.35610
H         55.01405        75.30096        -0.50326
H         57.51614        75.28618        -0.62868
H         59.92125        75.22818        -1.27595
H         62.34449        75.18202        -1.78198
H         64.75996        75.13488        -2.29283
H         67.17747        75.07900        -2.83664
H         22.09464        68.94035        -0.38174
H         20.84651        71.05465        -0.05200
H         20.84119        73.52789         0.20735
H         24.69409        64.72688        -0.70842
H         23.38373        66.82237        -0.67742
H         27.26558        60.47323        -1.38729
H         25.96676        62.59590        -0.93151
H         29.60561        56.37461        -0.08391
H         28.59412        58.32935        -1.30482
H         31.81595        52.33811         1.12858
H         30.67445        54.41990         0.94319
H         34.44672        48.31365        -0.28173
H         33.14151        50.22632         0.54924
H         36.92244        44.29021        -1.44681
H         35.72062        46.33664        -0.95243
H         39.65287        40.23822        -2.84335
H         38.00311        42.34010        -2.10228
H         41.70347        35.64372        -2.43822
H         40.49151        37.86290        -2.41767
H         45.00317        32.41606        -3.63366
H         42.88114        33.65174        -3.16931
H         47.19305        33.52855        -3.31449
H         48.40651        35.60989        -3.23788
H         49.82915        37.90667        -2.52210
H         50.96448        39.73120        -1.61283
H         52.24604        41.69430        -0.88046
H         53.51170        43.67973        -0.24275
H         54.74351        45.94782        -0.17433
H         55.91115        48.07755        -0.16342
H         57.16886        50.14422         0.14656
H         58.40633        52.25437         0.14926
H         59.65212        54.32135         0.08477
H         60.92061        56.46246        -0.08985
H         62.09832        58.63336        -0.48595
H         63.28025        60.72027        -0.84519
H         64.52761        62.85290        -1.05574
H         65.74289        64.97802        -1.50407
H         66.93543        67.09573        -1.93333
H         68.11738        69.19931        -2.41611
H         69.30651        71.31513        -2.91628
H         69.27562        73.78906        -3.18601
