         234
 CSIRO Nanostructure Databank - Neutral Graphene Oxide Data Set
C          1.16563         1.99627         0.48898
C          1.08015         3.36226         0.62250
C          2.38829         1.31608         0.25265
C          2.25026         4.21638         0.39301
C          1.06780         6.43522         0.16337
C          1.07897         7.75452        -0.09920
C          2.22669         5.69476         0.81527
C          2.26972         8.59618         0.16937
C          1.21087        10.78158        -0.61169
C          1.23053        12.12463        -0.86155
C          2.38155        10.02724        -0.25608
C          2.48088        12.89447        -0.87227
C          1.35224        15.11910        -1.03519
C          1.36817        16.51348        -1.03680
C          2.50540        14.37768        -0.75779
C          2.55789        17.21237        -0.74676
C          2.59115        18.66727        -0.84887
C          3.61122         2.00107         0.24757
C          3.57155         3.48077         0.26147
C          4.86725         1.35737         0.21234
C          4.83244         4.16522         0.67186
C          3.53576         6.37373         0.47028
C          3.55329         7.83454         0.37043
C          4.79450         5.70865         0.71357
C          4.82514         8.50068        -0.09894
C          3.60118        10.68574        -0.09033
C          3.71132        12.12691        -0.41554
C          4.82960         9.98079         0.18402
C          4.80103        12.90571         0.23497
C          3.72780        15.06575        -0.41620
C          3.72667        16.49826        -0.42508
C          4.89184        14.35097        -0.00626
C          4.92205        17.31455         0.05303
C          3.76594        19.34187        -0.86303
C          5.02322        18.62522        -0.69371
C          6.09893         2.07216         0.23482
C          6.09975         3.48765         0.43934
C          7.35112         1.40215         0.14889
C          7.31473         4.22267         0.50085
C          6.08034         6.40708         0.49913
C          6.08514         7.78373         0.31205
C          7.30942         5.66128         0.50014
C          7.31286         8.51493         0.29064
C          6.03444        10.63860         0.39702
C          6.01244        12.08914         0.69943
C          7.29711         9.93018         0.35373
C          7.31789        12.78066         0.86130
C          6.03903        15.11746         0.65527
C          6.19576        16.49295         0.02720
C          7.35827        14.33238         0.74836
C          7.34933        16.96766        -0.48976
C          6.20143        19.13542        -1.10943
C          7.46752        18.32725        -1.15975
C          8.56578         2.08827         0.28763
C          8.55478         3.52332         0.47228
C          9.81756         1.41335         0.13227
C          9.78141         4.23360         0.46760
C          8.52955         6.34553         0.27093
C          8.54906         7.79248         0.19176
C          9.75420         5.62027         0.23663
C          9.74769         8.50190         0.01798
C          8.54536        10.63794         0.43948
C          8.54564        12.02674         0.62387
C          9.79104         9.90984         0.24286
C          9.78365        12.76911         0.86084
C          8.61480        14.90846         0.28178
C          8.59282        16.11529        -0.63151
C          9.81391        14.21092         0.51202
C          9.90088        16.93597        -0.54703
C          8.67375        19.07471        -0.62275
C          9.86414        18.42056        -0.40675
C         11.06101         2.01845         0.34441
C         11.05517         3.48154         0.83610
C         12.23623         1.23855         0.14237
C         12.30399         4.25267         0.43741
C         10.95611         6.30069        -0.31655
C         10.93304         7.81123        -0.61242
C         12.24187         5.53379        -0.29904
C         12.25041         8.52783        -0.36918
C         11.03482        10.58002         0.25864
C         11.10204        11.97867         0.67968
C         12.27463         9.90393        -0.06961
C         12.33238        12.74247         0.47055
C         11.07267        14.83900         0.34327
C         11.13639        16.24654        -0.07481
C         12.30731        14.15531         0.51346
C         12.32867        17.02000         0.30591
C         11.08529        19.10587        -0.09431
C         12.29932        18.45394         0.20362
C         13.54384         1.60384         0.56130
C         13.52415         3.77443         0.79402
C         14.78929         1.22104         0.07302
C         14.80559         4.32253         0.40605
C         13.53654         6.27373        -0.49597
C         13.49624         7.79380        -0.63769
C         14.80061         5.60646        -0.08430
C         14.79946         8.49797        -0.43906
C         13.50539        10.66107        -0.03543
C         13.54588        12.04589         0.25809
C         14.79794         9.97737        -0.21094
C         14.78702        12.78188         0.39178
C         13.53607        14.89557         0.61831
C         13.48922        16.32455         0.65015
C         14.77824        14.18996         0.64938
C         14.69657        17.08724         0.99171
C         13.52969        19.17428         0.37583
C         14.72253        18.53202         0.70553
C         16.02158         1.98227         0.23417
C         16.05119         3.48116         0.49677
C         17.21816         1.32400         0.03403
C         17.34226         4.20959         0.18427
C         16.04332         6.38314        -0.17090
C         15.99991         7.69908        -0.81828
C         17.36712         5.69216        -0.05626
C         17.18423         8.23650        -1.23475
C         16.01743        10.81103        -0.33731
C         16.02592        12.12686         0.19959
C         17.20329        10.36694        -0.90405
C         17.28567        12.80090         0.31452
C         16.02215        14.88280         0.73966
C         16.03724        16.32349         1.02399
C         17.26333        14.22500         0.56445
C         17.26754        17.09175         0.79792
C         15.98532        19.19554         0.79490
C         17.19972        18.51490         0.84942
C         18.50663         1.98927        -0.28515
C         18.52699         3.48601        -0.35766
C         19.82474         1.35043        -0.13012
C         19.81250         4.22201        -0.40380
C         18.57616         6.33388        -0.64621
C         18.50184         7.71077        -1.01934
C         19.78270         5.62708        -0.67181
C         19.65619         8.57248        -1.04381
C         18.49773        10.79576        -0.48651
C         18.49525        12.08327         0.14838
C         19.65805         9.96791        -0.70048
C         19.76789        12.75196         0.44141
C         18.46916        14.98029         0.48943
C         18.47546        16.39261         0.55452
C         19.75982        14.26265         0.46801
C         19.73905        17.12655         0.43306
C         18.48355        19.30647         0.94709
C         19.73603        18.53054         0.59833
C         20.98042         2.06930        -0.22601
C         21.00893         3.50387        -0.42553
C         22.24269         4.23479        -0.61621
C         21.00103         6.29968        -1.15536
C         20.93485         7.87267        -1.31665
C         22.25573         5.55148        -0.97059
C         22.18275         8.66109        -1.31239
C         20.98333        10.58527        -0.35719
C         21.04371        12.00278         0.17461
C         22.19791         9.94633        -0.92145
C         22.26275        12.85174         0.13250
C         20.94433        14.96715        -0.16550
C         20.96092        16.45462         0.15723
C         22.22603        14.19538         0.07108
C         22.13829        17.20141         0.03023
C         20.93273        19.24872         0.47651
C         22.12782        18.58924         0.19344
O          7.45495        13.64339         2.03332
O         15.32061        16.70549         2.25125
O         18.32093         2.72194        -1.58838
O          2.90128         4.05431        -0.91290
O         16.82497         6.41775         1.08851
O          4.99361        12.51049         1.65214
O         11.40589         5.52339        -1.50293
O         17.12607         9.43949        -1.94225
O         14.96950         8.98993         0.93500
O         21.15979        10.85643         1.08816
O         10.84964        16.45971        -1.56181
O         19.92208        13.50237         1.69873
O         10.53250        12.29244         2.00775
O          4.76510         4.86963         1.94266
O         16.99649         3.84596         1.55502
O          3.50797        12.41361        -1.82770
O         13.57912         2.60572         1.56448
O          2.84437         8.42597         1.52987
O         20.85380         6.96025        -2.45394
O         13.57138         6.91982        -1.81531
O         18.40853        20.50442         0.16050
H         18.35211        20.24910        -0.78285
O          7.72924        18.11137        -2.58329
H          8.05506        17.18259        -2.69207
O          4.77321         8.34955        -1.56092
H          5.58094         8.75797        -1.93865
O          5.58974        15.31533         2.02758
H          5.74312        14.45633         2.49495
O          8.53082        15.56553        -1.99190
H          9.47576        15.49661        -2.28685
O         10.70213         7.94444        -2.05333
H         11.22279         7.21802        -2.47522
O          2.03289         5.74009         2.25173
H          2.20240         6.67068         2.52851
O          4.63078        17.70435         1.42441
H          4.75829        16.90377         1.98921
O         20.66550        14.88200        -1.60491
H         21.34082        15.41616        -2.07387
O         11.02394         3.41820         2.29093
H         11.85472         2.96662         2.56840
H          0.25632         1.39180         0.62112
H          0.13779         3.82487         0.94927
H          2.38254         0.22046         0.16041
H          0.15967         5.85471        -0.06160
H          0.19964         8.22098        -0.56886
H          0.24086        10.26388        -0.61976
H          0.27508        12.65109        -0.99521
H          0.41745        14.60114        -1.28962
H          0.45582        17.07206        -1.28882
H          1.64011        19.19325        -1.01832
H          4.89798         0.25794         0.17891
H          3.79295        20.42226        -1.06989
H          7.36245         0.31527        -0.02211
H          6.22802        20.12115        -1.60046
H          9.79180         0.34508        -0.13608
H          8.63187        20.17204        -0.54206
H         12.11800         0.29478        -0.41474
H         11.07015        20.20643        -0.10959
H         14.84859         0.32427        -0.56309
H         13.53151        20.26201         0.20792
H         17.19145         0.22986        -0.09404
H         16.01032        20.29426         0.73455
H         19.86510         0.27462         0.09665
H         18.58670        19.64881         2.01587
H         21.94566         1.54970        -0.12865
H         23.19245         3.68529        -0.53532
H         23.20956         6.04702        -1.20104
H         23.09267         8.18545        -1.70543
H         23.13676        10.51840        -0.93153
H         23.23114        12.34565         0.26439
H         23.17720        14.74778         0.10540
H         23.08859        16.70105        -0.20334
H         20.91628        20.34041         0.60044
H         23.06244        19.15800         0.09467
