         276
 CSIRO Nanostructure Databank - Neutral Graphene Oxide Data Set
C        -10.76013         0.54583        -1.66119
C         -9.90247         1.51748        -0.86618
C         -8.84118         0.77420         0.00619
C         -7.49278         1.38496         0.26168
C         -6.42306         0.65059         1.00102
C         -5.14935         1.36071         1.35848
C         -3.90444         0.50848         1.71735
C         -2.57389         1.34700         1.71694
C         -1.23170         0.61105         1.51943
C         -0.07854         1.47864         0.96812
C          1.25803         0.74363         0.79977
C          2.35396         1.56420         0.15580
C          3.57424         0.89522        -0.38130
C          4.84954         1.48782         0.20476
C          6.16900         0.81696        -0.17224
C          7.39410         1.36573         0.58728
C          8.72765         0.68568         0.19856
C         10.01578         1.51522         0.10909
C         11.05363         0.84733        -0.77369
C         -9.38388         2.58560        -1.83971
C         -8.71502         3.65567        -1.35378
C         -7.28997         2.71784         0.06423
C         -5.95780         3.33661        -0.14532
C         -4.87255         2.68161         0.66825
C         -3.79001         3.55273         1.22182
C         -2.54644         2.85755         1.71433
C         -1.20233         3.63027         1.70670
C         -0.08047         2.84001         1.02276
C          1.13777         3.64414         0.69479
C          2.44603         2.98656         0.55781
C          3.62548         3.69788         0.34953
C          4.88114         3.00244        -0.17755
C          6.13095         3.67807         0.37475
C          7.41810         2.91920         0.51859
C          8.65101         3.65086         0.11997
C          9.79385         2.97609        -0.20134
C         -8.18458         4.90794        -1.87246
C         -7.04061         5.47745        -1.35147
C         -5.79186         4.69277        -0.90030
C         -4.61797         5.60942        -0.30208
C         -3.76486         4.99021         0.83092
C         -2.48101         5.73288         1.04662
C         -1.30502         5.09767         1.28708
C         -0.01261         5.88978         1.54593
C          1.17697         5.13429         0.91004
C          2.51163         5.81559         0.97245
C          3.69672         5.10492         0.46501
C          4.90518         5.80549         0.14361
C          6.13578         5.13794         0.12026
C          7.39803         5.82152         0.09746
C          8.57425         5.10199         0.04102
C         -6.83799         6.88428        -1.62485
C         -5.92497         7.65143        -0.96025
C         -5.09187         7.01079         0.14358
C         -3.88754         7.88195         0.56788
C         -2.57811         7.22244         0.98327
C         -1.29604         8.00557         0.86638
C          0.00311         7.30094         0.95419
C          1.17147         7.99369         0.76038
C          2.48773         7.32499         0.94201
C          3.66458         8.03587         0.34298
C          4.86464         7.27023        -0.09790
C          6.17111         7.97233        -0.45181
C          7.38949         7.33101         0.25322
C         -5.87496         9.07727        -1.21478
C         -4.93405         9.88496        -0.67978
C         -3.83764         9.34206         0.15099
C         -2.56547        10.05138         0.09219
C         -1.30054         9.25720         0.01227
C         -0.01609        10.03198         0.10152
C          1.16369         9.40295         0.34026
C          2.45721        10.17523         0.07530
C          3.72179         9.51182         0.67463
C          5.00886        10.14593         0.19618
C          6.08786         9.46898        -0.22081
C        -10.87421        -0.76942        -1.45769
C        -10.12061        -1.54014        -0.39864
C         -8.95437        -0.71969         0.18324
C         -7.71435        -1.53182         0.54290
C         -6.47023        -0.84434         1.00887
C         -5.14734        -1.58263         1.00562
C         -3.88615        -0.73041         0.78921
C         -2.60277        -1.51840         0.85958
C         -1.35930        -0.69679         0.72471
C         -0.08925        -1.37972         0.31611
C          1.22894        -0.68479         0.28582
C          2.34063        -1.32194        -0.18553
C          3.47561        -0.55426        -0.85036
C          4.85212        -1.30028        -0.97903
C          6.15727        -0.58182        -0.72070
C          7.38712        -1.42716        -0.50265
C          8.70295        -0.72096        -0.31628
C          9.91205        -1.35153        -0.91365
C         11.05157        -0.45877        -1.11865
C         -9.57535        -2.85927        -0.96724
C         -8.82363        -3.74615        -0.00122
C         -7.62259        -2.86305        -0.20949
C         -6.24901        -3.54724        -0.34945
C         -5.13740        -3.01738         0.59307
C         -3.80590        -3.63860         0.39441
C         -2.62048        -2.88715         0.53577
C         -1.34822        -3.57798         0.18934
C         -0.04073        -2.88015         0.49822
C          1.10529        -3.54904        -0.24018
C          2.33612        -2.77485        -0.54836
C          3.68558        -3.51715        -0.43605
C          4.86858        -2.80009        -1.08662
C          6.15779        -3.64503        -1.29134
C          7.41089        -2.87925        -0.86894
C          8.75035        -3.59452        -1.32149
C          9.96339        -2.69243        -1.13517
C         -8.81590        -5.09180         0.17366
C         -7.54150        -5.81179         0.32644
C         -6.45055        -5.09761        -0.42764
C         -4.82991        -5.83096         1.29866
C         -3.79578        -5.11267         0.45388
C         -2.52843        -5.88879         0.29484
C         -1.30626        -5.07178         0.04463
C         -0.02078        -5.86231        -0.02148
C          1.22676        -5.00690         0.08213
C          2.50159        -5.72658        -0.14359
C          3.59033        -4.99791        -0.90982
C          4.91889        -5.79121        -0.85244
C          6.17592        -4.99372        -0.54914
C          7.52551        -5.82701        -0.95678
C          8.65817        -4.91409        -0.59113
C         -7.46986        -7.11399         0.72902
C         -6.24778        -7.96489         1.08368
C         -4.91038        -7.27883         0.98687
C         -3.73770        -7.96166         0.82535
C         -2.47331        -7.19173         1.12076
C         -1.13883        -7.99270         1.03086
C          0.09070        -7.14376         0.79202
C          1.41916        -7.74779         0.61625
C          2.48133        -7.21033        -0.03593
C          3.76979        -7.99212         0.04359
C          4.95978        -7.25404        -0.55642
C          6.26930        -7.90193        -0.22951
C          7.44004        -7.20653        -0.29915
C         -6.16652        -9.32742         0.42710
C         -4.99398        -9.97408         0.22129
C         -3.69413        -9.36544         0.49865
C         -2.48472       -10.02872         0.39547
C         -1.16724        -9.45418         0.62982
C         -0.07856       -10.24584         0.25891
C          1.34172        -9.91539         0.34529
C          2.42498       -10.26680        -0.41414
C          3.72312        -9.43257        -0.57653
C          5.03456       -10.06840        -0.11525
C          6.17118        -9.34389         0.04282
O          6.69725         3.42248         1.70118
O         -5.52057        -5.29372         2.15223
O          1.38827        -3.15303        -1.59748
O         -7.40491        -1.47448         1.94853
O         -2.63870         2.11399         2.95647
O         -5.88829        -5.69227        -1.33391
O         -6.19628         1.28689         2.34572
O         -0.33544        -7.45923         2.14854
O          4.95218         3.12671        -1.55163
O          7.27500        -2.48085         0.50581
O         -1.40665        -4.20500        -1.12965
O          0.89826         4.62826        -0.40981
O          4.94519        -6.76661        -1.94507
O         -3.48184        -5.87282        -0.78357
O         -8.38680         3.56299         0.02050
O         -8.24516        -2.52626        -1.54335
O          2.74173         6.62360         2.17737
O          2.69882         1.65878        -1.26777
O         -4.95714         2.43115        -0.75207
O          2.12245        -5.21144         1.21625
O         -4.39247         4.58785         2.07823
O          1.59868        -8.93722         1.33140
O         -0.95119        -0.75356        -0.69547
O         -5.22136        -2.63624         2.00971
O          0.15118         6.07749         2.91013
O         -9.42989         0.18379         1.22533
O          3.80969         7.69804        -1.07268
O         -4.30271         8.89119         1.52218
O         -2.01319         7.95620         2.11929
O          8.95809        -0.44049         1.10788
O          4.75061        -1.99906        -2.27428
O          6.39886         0.58128        -1.58061
O         -5.31277         4.26506        -2.20818
H         -5.45371         4.99966        -2.84248
O         -3.98462        -0.20554        -0.56068
H         -3.64367        -0.87134        -1.19591
O          3.18462        -4.94805        -2.28199
H          3.48814        -5.77770        -2.71712
O         -2.65376        -6.75333         2.49264
H         -1.78063        -6.79681         2.95161
O         -5.71444        -3.18150        -1.63522
H         -5.46453        -4.02623        -2.08765
O          4.02716        -3.44821         0.95957
H          3.33705        -3.93170         1.47978
O          1.75486         0.61390         2.17053
H          0.98440         0.35785         2.74006
O          8.71258        -3.73715        -2.73785
H          8.20310        -4.56088        -2.95689
O          3.66798         9.60785         2.11169
H          3.82956        10.53699         2.37447
O         -5.94301         6.84178         1.28426
H         -5.83510         7.63750         1.85386
O         -4.05398         0.01131         3.04474
H         -4.91233         0.34677         3.39897
O          4.12708        -8.09372         1.44290
H          3.36141        -8.50184         1.91219
O          3.81856        -9.23637        -2.00696
H          4.01946       -10.09718        -2.42829
O        -11.02738        -1.86743         0.67061
H        -11.00271        -1.11580         1.30531
O          6.16492        -3.98169        -2.68176
H          5.80355        -3.20955        -3.17839
O          2.62869        10.29238        -1.34288
H          2.91482         9.41452        -1.68379
O          7.18456         1.01786         1.97191
H          7.94762         1.34518         2.49288
O         10.59630         1.51638         1.44907
H         10.50415         0.59254         1.78194
O         -0.81889         0.17352         2.84734
H         -1.18663         0.84334         3.47682
O          7.37193         7.63892         1.65346
H          6.73466         7.04945         2.10707
O          6.39987         7.76585        -1.86322
H          5.53271         7.86223        -2.31523
O          0.23613        -3.09372         1.90943
H         -0.29422        -2.46300         2.44343
O         -1.34310         8.72907        -1.38005
H         -1.03648         9.44184        -1.98115
O        -10.79220         2.19111         0.05323
H        -10.77139         1.68805         0.89779
O         -0.75712         3.65102         3.08418
H         -0.43831         4.57625         3.31796
O          2.96143        -0.49922        -2.19984
H          3.49132         0.14665        -2.71365
O         -3.67954         5.87293        -1.36117
H         -3.56380         5.03820        -1.87261
O         -6.42755        -8.20984         2.51696
H         -6.32052        -7.34191         2.96814
O          0.00011        -6.41247        -1.37500
H         -0.29227        -5.69287        -1.98286
O          7.53018        -6.09032        -2.36520
H          6.64654        -6.46770        -2.60387
O          4.64083         1.37813         1.61319
H          5.49948         1.50652         2.09277
O          6.22487        -4.79288         0.85123
H          5.96832        -5.61460         1.31794
H         11.92147        -0.87581        -1.64972
H         11.94636         1.45134        -0.99898
H         10.67399         3.54833        -0.53439
H          9.52780         5.64750        -0.03457
H          8.32332         7.77293        -0.17250
H          6.98844        10.03502        -0.50766
H          5.06531        11.24425         0.27527
H          2.35331        11.21472         0.48236
H         -0.02331        11.08916        -0.20693
H         -2.56946        11.00995        -0.45667
H         -4.92009        10.95906        -0.91706
H         -6.63972         9.49536        -1.88765
H         -7.54375         7.37210        -2.31768
H         -8.84760         5.54753        -2.48031
H         -9.67790         2.52829        -2.89713
H        -11.39851         1.01329        -2.42830
H        -11.59186        -1.34816        -2.06180
H        -10.25706        -3.35481        -1.69717
H         -9.74721        -5.67513         0.09394
H         -8.40917        -7.56256         1.09851
H         -7.11208        -9.84146         0.19619
H         -5.00210       -10.99524        -0.19082
H         -2.50360       -11.08887         0.09608
H         -0.32756       -11.22322        -0.18752
H          2.27316       -11.01108        -1.21344
H          5.06591       -11.15524         0.06005
H          7.09911        -9.86049         0.33585
H          8.38711        -7.73533        -0.10381
H          8.90359        -4.87472         0.48443
H         10.90684        -3.11674        -1.51599
