         490
 CSIRO Nanostructure Databank - Neutral Graphene Oxide Data Set
C         39.13119        50.95577         4.69797
C         38.10124        51.72482         5.14172
C         38.39308        53.37146         3.36408
C         37.71864        52.93241         4.45985
C         41.17105        49.18226         3.35803
C         40.88992        50.47773         2.88651
C         40.02992        51.42797         3.63839
C         40.16750        53.02444         1.52402
C         39.65725        52.74612         2.95129
C         40.24695        54.50210         1.29250
C         42.74484        48.73170         1.54350
C         42.10685        48.34343         2.74728
C         42.29711        49.95906         1.00445
C         41.51610        50.91474         1.68251
C         42.59678        52.98016         0.71059
C         41.46025        52.29513         1.22412
C         42.61803        54.40684         0.71729
C         41.42049        55.12755         0.98818
C         45.03441        45.85100         0.76108
C         43.93361        46.61089         1.16147
C         44.89415        48.60751        -0.00391
C         43.83912        47.98830         0.93434
C         45.03956        50.11991         0.10435
C         43.89595        50.92656         0.04929
C         45.10297        52.97289         0.36825
C         43.84755        52.29278         0.38259
C         45.15133        54.40424         0.36344
C         43.91481        55.19423         0.70935
C         45.02964        57.13016        -0.38232
C         43.87972        56.48897        -0.06859
C         47.50087        44.30603         0.23477
C         47.46705        45.74902         0.27515
C         46.24245        46.48582         0.34333
C         47.45077        48.59349        -0.03378
C         46.23197        47.89972         0.14521
C         47.50182        50.02971        -0.06580
C         46.28360        50.79339         0.14487
C         47.57495        52.92833         0.21182
C         46.29256        52.20987         0.23318
C         47.59760        54.39543        -0.01361
C         46.34391        55.09662         0.06526
C         47.54629        57.19984        -0.41780
C         46.33027        56.50828        -0.20172
C         47.57997        58.62466        -0.58445
C         49.95141        44.31254         0.64351
C         48.66637        43.60927         0.29292
C         49.92262        45.73954         0.17507
C         48.71804        46.44634         0.13458
C         49.89072        48.57112        -0.36069
C         48.69689        47.88147        -0.07957
C         49.90704        49.96615        -0.59104
C         48.70763        50.68726        -0.34007
C         49.84280        52.91518        -0.92098
C         48.79655        52.14498        -0.14906
C         50.09608        54.29521        -0.25483
C         48.78933        55.06833        -0.25614
C         50.00912        57.18317        -0.74392
C         48.79920        56.49074        -0.45972
C         50.01304        58.61046        -0.88469
C         48.75468        59.29636        -0.77775
C         52.46389        41.47838         0.50790
C         51.28955        42.20031         0.66473
C         52.41131        44.20757        -0.10824
C         51.23423        43.56188         0.32403
C         52.31850        45.59465        -0.69993
C         51.20717        46.41030        -0.07008
C         52.29411        48.45514        -1.22489
C         51.18613        47.86717        -0.37334
C         52.35456        49.96393        -1.06196
C         51.15246        50.64518        -0.90204
C         52.40729        52.83850        -1.28465
C         51.11298        52.10329        -1.16923
C         52.42171        54.31160        -1.12969
C         51.25396        55.03098        -0.88621
C         52.44192        57.13513        -1.26991
C         51.24767        56.45474        -0.94862
C         52.45640        58.58762        -1.33273
C         51.22399        59.31191        -1.13373
C         52.42752        61.43154        -1.45453
C         51.26879        60.74948        -1.25415
C         54.89910        39.97888        -0.13456
C         54.87962        41.34634        -0.05194
C         53.65447        42.11326         0.10199
C         54.88688        44.22613        -0.47574
C         53.64146        43.51085        -0.17036
C         54.87706        45.62565        -0.74502
C         53.62267        46.36801        -0.77875
C         54.82803        48.43981        -1.50044
C         53.59827        47.71679        -1.02194
C         54.84111        49.93225        -1.23818
C         53.62481        50.65348        -1.19198
C         54.87904        52.78116        -1.26135
C         53.66727        52.08208        -1.19317
C         54.88647        54.24027        -1.35076
C         53.66202        54.98129        -1.29519
C         54.90501        57.06993        -1.59766
C         53.66877        56.39993        -1.38961
C         54.80475        58.46588        -2.15655
C         53.64853        59.25847        -1.59769
C         54.97702        61.46485        -1.96763
C         53.71642        60.72945        -1.55069
C         55.00491        62.91810        -2.27679
C         57.33848        39.86543        -0.37222
C         56.12895        39.24219        -0.19167
C         57.31962        41.34664        -0.68917
C         56.19272        42.08719         0.03354
C         57.34810        44.19876        -0.62142
C         56.11975        43.52960        -0.42949
C         57.35552        45.61627        -0.81923
C         56.10814        46.33252        -0.91923
C         57.30653        48.47656        -1.19131
C         56.10873        47.74373        -1.12993
C         57.32888        49.90561        -1.20527
C         56.08043        50.62557        -1.22046
C         57.35102        52.75611        -1.20032
C         56.10581        52.05542        -1.23490
C         57.41260        54.22632        -1.54093
C         56.08959        54.93651        -1.43751
C         57.39541        57.05082        -1.53737
C         56.11056        56.35406        -1.56522
C         57.32868        58.52390        -1.58483
C         56.15045        59.21009        -2.20879
C         57.56066        61.48004        -2.32876
C         56.21876        60.69867        -2.35635
C         57.43853        62.92547        -1.86694
C         56.17178        63.58925        -2.12566
C         59.83722        37.04728        -0.30105
C         58.64310        37.73394        -0.37194
C         59.82568        39.87005        -0.30808
C         58.60301        39.15214        -0.36842
C         59.82657        41.31909        -0.34469
C         58.63610        42.05268        -0.46204
C         59.82038        44.20666        -0.60870
C         58.61126        43.48608        -0.56244
C         59.83425        45.62028        -0.82381
C         58.58549        46.29751        -0.96660
C         59.87774        48.52485        -1.09817
C         58.56576        47.72848        -1.27466
C         59.77000        49.94634        -0.80940
C         58.55731        50.63161        -0.99527
C         59.76777        52.85809        -0.72430
C         58.54401        52.08281        -0.96435
C         59.78761        54.22608        -0.72362
C         58.47351        54.97017        -0.73357
C         59.82769        57.14031        -1.03648
C         58.56487        56.42182        -1.15770
C         59.83436        58.52571        -1.19763
C         58.58968        59.29633        -1.34574
C         59.76823        61.46890        -0.96617
C         58.67263        60.72163        -1.65817
C         59.91505        62.88814        -1.53058
C         58.57966        63.60613        -1.48988
C         59.71420        65.65214        -0.74594
C         58.57952        65.00106        -1.13178
C         62.40664        35.61756        -0.19299
C         62.31764        37.04119        -0.00252
C         61.07190        37.73545        -0.16899
C         62.29898        39.86891        -0.03521
C         61.06128        39.16256        -0.16266
C         62.28607        41.29740        -0.15128
C         61.08955        41.99916        -0.27484
C         62.36324        44.21296        -0.39482
C         61.07239        43.47950        -0.29635
C         62.37272        45.63564        -0.91944
C         61.06353        46.37060        -0.78107
C         62.25555        48.52806        -0.38193
C         61.08537        47.77319        -0.71840
C         62.25075        49.92511        -0.25755
C         60.95773        50.63406        -0.28409
C         62.27386        52.84634        -0.24692
C         60.97420        52.13995        -0.25383
C         62.29519        54.23925        -0.33582
C         60.98921        55.00085        -0.21743
C         62.29205        57.07480        -0.70538
C         61.06628        56.42513        -0.74082
C         62.38878        58.50942        -1.05118
C         61.08770        59.28473        -1.28614
C         62.26948        61.41319        -0.78879
C         61.09255        60.73032        -1.03260
C         62.24157        62.86463        -0.60447
C         61.05723        63.59846        -0.84207
C         62.15293        65.67037        -0.12134
C         60.98700        64.97943        -0.58417
C         62.17556        67.11553        -0.00360
C         64.83930        35.62668         0.13493
C         63.61354        34.97437        -0.23411
C         64.66419        36.96162         0.85380
C         63.49974        37.76002         0.28570
C         64.77546        39.89769         0.41528
C         63.51599        39.16850         0.22995
C         64.81579        41.29513         0.21088
C         63.59975        41.97475        -0.27255
C         64.90082        44.17091        -0.13361
C         63.65824        43.45035        -0.50651
C         64.89762        45.67206        -0.37570
C         63.52628        46.32912        -0.21169
C         64.70973        48.56532         0.17780
C         63.48050        47.80643        -0.03056
C         64.68803        49.94486         0.19200
C         63.45007        50.66628        -0.01820
C         64.73485        52.79267        -0.03261
C         63.47725        52.08948        -0.07948
C         64.74929        54.22400        -0.15565
C         63.53982        54.94243        -0.29829
C         64.74128        57.10497        -0.28521
C         63.53999        56.39133        -0.39357
C         64.74424        58.56428        -0.28608
C         63.54904        59.28603        -0.59338
C         64.69161        61.42705        -0.18869
C         63.51304        60.69305        -0.56002
C         64.65750        62.83583        -0.02031
C         63.40789        63.54974        -0.18037
C         64.54880        65.62593         0.58870
C         63.34786        64.94431         0.06970
C         64.51724        67.12737         0.76832
C         63.28704        67.81185         0.33920
C         67.42347        33.24812        -1.08127
C         66.20353        33.75992        -0.72551
C         67.32346        35.52635         0.66456
C         66.07140        35.00508        -0.02279
C         67.28768        37.03548         0.91046
C         65.96592        37.76049         0.98092
C         67.21157        39.93081         0.80615
C         65.97670        39.22264         0.73758
C         67.22849        41.34321         0.65328
C         66.01842        42.03007         0.39059
C         67.20058        44.22749         0.90818
C         66.01276        43.49300         0.28974
C         67.29950        45.67104         0.37210
C         65.93870        46.36817         0.51198
C         66.98330        48.55002         1.18932
C         66.04938        47.86610         0.19379
C         67.11481        50.01201         0.79073
C         65.93512        50.67879         0.37766
C         67.27184        52.74893         0.01699
C         65.93898        52.07604         0.16398
C         67.20261        54.24237         0.11487
C         66.01558        54.93465        -0.06604
C         67.19121        57.09886        -0.02871
C         66.00245        56.39533        -0.12116
C         67.20305        58.56603        -0.09086
C         65.92214        59.28728        -0.06144
C         67.11239        61.44028         0.28720
C         65.92276        60.71815         0.01412
C         67.10300        62.84972         0.34977
C         65.86338        63.55290         0.24191
C         67.05943        65.69777         0.50365
C         65.86007        64.96577         0.44024
C         67.04476        67.15554         0.67336
C         65.81433        67.85030         0.80873
C         67.00772        69.91572         1.23732
C         65.81398        69.22943         1.05313
C         69.92313        32.65857        -2.53837
C         69.90676        33.54253        -1.44198
C         68.64775        33.94432        -0.79964
C         69.82091        35.79107         0.30482
C         68.61167        35.08884        -0.00687
C         69.79779        37.13256         0.68061
C         68.52916        37.83414         0.77315
C         69.69786        39.94304         1.39109
C         68.46982        39.20636         0.91778
C         69.75794        41.39613         1.01177
C         68.55077        42.06974         0.43314
C         69.67617        44.23759         1.06761
C         68.52930        43.53939         0.75460
C         69.74596        45.76772         1.04357
C         68.40128        46.46712         1.03760
C         69.39526        48.55975         2.00948
C         68.29016        47.78695         1.31654
C         69.57513        49.96064         1.38203
C         68.30365        50.73378         1.08414
C         69.61581        52.84140         1.05840
C         68.38923        52.10093         0.81623
C         69.67643        54.23141         0.77812
C         68.50469        54.92261         0.17606
C         69.59791        57.14905         0.85903
C         68.49983        56.42418         0.09248
C         69.71484        58.60259         0.50447
C         68.47262        59.31885         0.14219
C         69.63703        61.50683         0.44881
C         68.37303        60.72260         0.68502
C         69.60195        62.87750         0.48742
C         68.32724        63.59819         0.46634
C         69.58410        65.72440         0.08203
C         68.30433        64.99368         0.43924
C         69.55296        67.23334         0.38930
C         68.25997        67.88850         0.75125
C         69.49382        70.01022         1.42070
C         68.24116        69.26170         1.09163
C         69.51389        71.47986         1.42007
C         72.32612        32.84875        -2.69553
C         71.12255        32.31417        -3.15889
C         72.32559        33.72923        -1.61068
C         71.12816        34.09307        -0.98386
C         72.32801        35.82050         0.43566
C         71.09760        34.98028         0.25710
C         72.28334        37.13367         0.72808
C         71.03440        37.86757         0.86842
C         72.19025        40.00282         1.41140
C         71.00677        39.22579         1.15452
C         72.13667        41.35740         1.56317
C         70.92366        42.10643         1.27546
C         72.05471        44.31100         1.73573
C         70.92039        43.54997         1.27865
C         71.96137        45.60168         2.15979
C         70.64332        46.33085         2.16416
C         71.89710        48.58393         2.11608
C         70.71944        47.83397         2.04107
C         71.91139        49.97266         2.15465
C         70.63247        50.77657         2.15880
C         71.93308        52.92024         1.81066
C         70.75684        52.18864         1.61025
C         72.00197        54.27420         1.50539
C         70.86941        54.96942         1.02024
C         72.09415        57.14819         0.86244
C         70.90876        56.40908         0.85471
C         72.11154        58.54455         0.76242
C         70.90992        59.28866         0.57617
C         72.05984        61.52891         0.95718
C         70.95632        60.77719         0.24953
C         72.00935        62.87002         1.08145
C         70.83730        63.63824         0.67284
C         72.03821        65.78100         0.82631
C         70.82958        65.01778         0.60530
C         72.07297        67.13263         0.83010
C         70.84576        67.94241         0.66654
C         72.02827        70.16896         1.10794
C         70.83955        69.31887         1.27384
C         71.95294        71.51319         1.28909
C         70.68378        72.17121         1.45271
O         56.26294        59.82950        -3.54009
O         42.68429        50.28542        -0.30361
O         57.56898        59.06313        -0.21889
O         54.72035        61.22834        -0.53459
O         51.63072        47.38618         0.94335
O         63.77354        42.55584        -1.65175
O         60.70875        51.38299         0.98158
O         70.26463        67.97029        -0.69010
O         68.05309        59.10971        -1.23017
O         61.94840        58.85409        -2.40268
O         70.19563        69.40439         2.57813
O         63.16922        46.77630         1.11775
O         48.55130        52.49575         1.25815
O         66.67130        37.37194         2.21962
O         61.75434        44.07710         0.91097
O         64.34244        66.23149         1.92190
O         51.64569        52.42240        -2.50934
O         59.38797        48.12143        -2.42422
O         68.89149        55.64983        -1.07377
O         40.69846        52.70994         3.95107
O         62.66341        45.55889        -2.35159
H         62.05618        46.16152        -2.83169
O         67.35473        34.87228         1.97043
H         66.89652        35.47687         2.59922
O         69.09441        57.11532         2.25250
H         69.68005        57.68430         2.79642
O         71.05393        34.07054         1.40485
H         70.15778        33.67046         1.42795
O         66.34960        48.58688         2.49168
H         67.05908        48.79215         3.14719
O         60.75545        55.15137         1.23966
H         60.84114        54.25829         1.64087
O         57.03763        41.46069        -2.11771
H         57.72794        40.96182        -2.60235
O         68.95145        48.66946         3.41019
H         69.11806        47.77411         3.80378
O         57.96361        61.63574        -3.74600
H         57.76033        60.78143        -4.19575
O         44.07584        55.59907         2.12644
H         44.92677        56.08330         2.19285
O         39.13561        52.46153         0.64932
H         39.42066        52.59970        -0.27829
O         69.52873        39.95923         2.86823
H         69.41285        39.02835         3.15750
O         65.25531        45.88265        -1.77011
H         64.52639        45.49905        -2.31925
O         66.64673        48.04280        -1.11938
H         66.02633        47.64429        -1.77604
O         49.22783        53.16540        -2.20739
H         49.96013        53.17217        -2.87053
O         70.38752        46.09407        -0.21227
H         69.75689        45.83269        -0.92246
O         70.24717        50.97348         3.54558
H         69.85179        50.12670         3.87150
O         60.32236        62.79622        -2.91925
H         59.56896        62.40877        -3.43435
O         64.22040        36.63678         2.20529
H         65.01286        36.69140         2.78825
O         58.03613        54.98582         0.65215
H         58.79778        55.31325         1.18944
O         44.41997        48.32230        -1.36387
H         43.56820        48.80546        -1.46570
O         71.25984        60.84278        -1.17996
H         71.17777        61.77908        -1.46001
O         54.39269        58.20417        -3.54391
H         54.83000        58.88588        -4.10846
O         57.83841        54.30186        -2.93471
H         57.16663        53.84513        -3.48316
O         54.75202        48.32425        -2.97690
H         53.79549        48.39124        -3.21860
O         65.55145        46.22821         1.88780
H         64.64111        46.61214         1.99731
O         49.96468        44.38701         2.12532
H         49.24369        44.99582         2.39435
O         50.55618        54.11628         1.10692
H         49.83915        53.64983         1.60685
O         67.67878        52.50088        -1.39912
H         68.23617        53.25959        -1.68189
O         67.69896        45.53727        -1.01266
H         67.58149        46.43141        -1.41973
O         67.01010        44.18658         2.34575
H         66.28140        44.82218         2.56570
O         70.13555        49.68369         0.06934
H         70.01889        50.47729        -0.49399
O         68.30449        60.53403         2.14730
H         68.18517        61.41849         2.55486
O         69.95908        46.06993         3.43887
H         69.63156        45.14325         3.42061
O         69.65264        65.58944        -1.37005
H         70.11177        66.39917        -1.69952
O         51.87814        45.38637        -2.08027
H         52.61941        44.97982        -2.57646
O         51.94578        48.24694        -2.63745
H         51.16944        48.81093        -2.84378
O         56.55202        42.13316         1.44415
H         55.82597        42.57905         1.92836
O         68.73320        42.01492        -1.04444
H         68.13567        42.68938        -1.43625
O         59.39058        61.59967         0.44436
H         58.88511        60.79727         0.70155
H         39.28832        49.95657         5.12896
H         37.46421        51.36503         5.96226
H         37.97561        54.18316         2.75106
H         36.79298        53.43663         4.77228
H         40.71025        48.84167         4.29542
H         39.33763        55.09822         1.45619
H         42.36807        47.39125         3.22847
H         41.44319        56.22620         0.94728
H         45.01690        44.76633         0.93280
H         43.10553        46.09767         1.67330
H         44.97872        58.11940        -0.86035
H         42.91459        56.97791        -0.26581
H         46.55817        43.76022         0.08232
H         46.64400        59.19674        -0.52331
H         48.64915        42.51210         0.21911
H         48.72116        60.38964        -0.87317
H         52.47206        40.40887         0.75741
H         50.39462        41.69615         1.05398
H         52.42080        62.52987        -1.48970
H         50.33823        61.32577        -1.16177
H         53.96179        39.40418        -0.12254
H         54.07099        63.45675        -2.49066
H         56.07010        38.15239        -0.06049
H         56.17137        64.68399        -2.23842
H         59.81418        35.94981        -0.30981
H         57.70844        37.16192        -0.44487
H         59.63979        66.71859        -0.49331
H         57.63397        65.56157        -1.16656
H         61.50050        35.04643        -0.43421
H         61.28055        67.68050        -0.29770
H         63.62931        33.91415        -0.52103
H         63.27630        68.90938         0.27648
H         67.45817        32.30673        -1.64610
H         65.30191        33.22543        -1.05434
H         66.96905        70.97647         1.51536
H         64.86451        69.76715         1.17535
H         68.98395        32.23936        -2.92448
H         68.56666        72.03480         1.37377
H         73.27392        32.57993        -3.18202
H         71.11786        31.62472        -4.01447
H         73.28187        34.13915        -1.25807
H         73.30311        35.31408         0.39190
H         73.22821        37.67664         0.86968
H         73.16286        39.49903         1.49944
H         73.06393        41.89969         1.78996
H         73.03116        43.81148         1.81237
H         72.85127        46.08891         2.58401
H         72.86348        48.05951         2.16813
H         72.87711        50.47709         2.30147
H         72.81601        52.43532         2.24782
H         72.93458        54.81699         1.70910
H         73.06072        56.62604         0.90788
H         73.08247        59.05672         0.74152
H         72.96274        60.99074         1.28015
H         72.86268        63.39630         1.53207
H         72.97667        65.23772         1.00465
H         73.02161        67.65151         1.02775
H         72.97889        69.70578         0.80657
H         72.85573        72.13292         1.19405
H         70.66727        73.26980         1.48606
