         324
 CSIRO Nanostructure Databank - Neutral Graphene Oxide Data Set
C          1.13249         3.49556         0.36771
C         -0.04257         4.18919         0.15062
C          1.12822         6.33523         0.36366
C         -0.02834         5.59378         0.10043
C          1.09717         7.78237         0.05797
C          0.27018         8.35779        -0.94777
C          1.33367        10.55663        -0.64499
C          0.32544         9.71774        -1.20617
C          1.40178        11.97023        -0.86778
C          0.27389        12.70167        -1.43465
C          1.61684        14.77545        -1.56463
C          0.30866        14.02937        -1.67477
C          1.51427        16.31767        -1.44237
C          0.22988        17.03539        -1.34623
C          1.35258        19.17889        -0.79685
C          0.18349        18.37201        -1.10480
C          1.28818        20.59260        -0.66354
C          0.08888        21.33146        -0.97947
C          1.10707        23.44132        -0.21434
C         -0.01019        22.67057        -0.78056
C          1.06708        24.97280        -0.17242
C         -0.08102        25.72981        -0.70137
C          1.21689        27.79817        -0.86476
C         -0.01412        27.06924        -0.95940
C          1.28035        29.17987        -0.81033
C          3.55877         3.46267         0.74436
C          2.34084         4.19702         0.62327
C          3.59345         6.24174         1.07983
C          2.33425         5.62612         0.73295
C          3.68677         7.64931         1.38376
C          1.96142         8.67076         0.69694
C          3.53608        10.62843         0.56967
C          2.30234         9.96403         0.22391
C          3.61203        12.01657         0.25740
C          2.50714        12.67577        -0.37136
C          3.68240        14.91777         0.02174
C          2.47593        14.15779        -0.45609
C          3.83304        16.34278        -0.31749
C          2.69517        17.07940        -0.87698
C          3.72775        19.20154        -0.09942
C          2.57685        18.50879        -0.53330
C          3.68124        20.63191         0.00992
C          2.45559        21.32932        -0.26595
C          3.60413        23.47544         0.10007
C          2.40639        22.74110        -0.11520
C          3.62801        24.89744        -0.00346
C          2.36457        25.75276         0.05677
C          3.74711        27.76709        -0.60202
C          2.47937        26.97626        -0.87283
C          3.73760        29.20287        -0.49174
C          2.49805        29.86031        -0.58572
C          6.04757         3.28708         1.08975
C          4.78127         4.09575         0.89753
C          6.07251         6.21313         1.26232
C          4.79225         5.50457         1.06925
C          6.07586         7.73310         1.19624
C          4.78752         8.44534         1.11542
C          5.99269        10.55370         0.95612
C          4.75314         9.89058         0.95383
C          5.99892        12.03068         1.03102
C          4.80801        12.77272         0.56816
C          6.11666        14.88443         0.57296
C          4.87311        14.15640         0.44363
C          6.13701        16.31040         0.47551
C          4.95026        17.04603         0.12288
C          6.12900        19.16238         0.57286
C          4.95646        18.48754         0.15992
C          6.04894        20.62390         0.83656
C          4.84626        21.35666         0.36033
C          6.05629        23.50828         0.50635
C          4.83875        22.76589         0.30935
C          6.08583        24.91133         0.27268
C          4.85046        25.57739        -0.05137
C          6.18961        27.53348        -0.58972
C          4.89291        26.97949        -0.40916
C          6.18991        29.67273        -0.38864
C          4.89771        29.99344        -0.05226
C          8.51360         3.35995         0.77653
C          7.34529         4.06038         0.91244
C          8.46148         6.24784         0.60962
C          7.33064         5.51167         0.92173
C          8.46616         7.70509         0.49843
C          7.29445         8.43740         0.79103
C          8.49338        10.54880         0.63838
C          7.26416         9.85584         0.82084
C          8.63411        11.98118         1.14502
C          7.32131        12.76488         1.11221
C          8.56357        14.87684         0.56684
C          7.33583        14.19138         0.74663
C          8.58255        16.29296         0.49566
C          7.35196        17.02742         0.61966
C          8.61681        19.14476         1.02188
C          7.33196        18.44743         0.77575
C          8.64049        20.64975         1.43507
C          7.27786        21.39998         1.24336
C          8.29888        23.71628         1.35461
C          7.22414        22.88191         1.01745
C          8.51907        25.01035         0.80125
C          7.31804        25.64178         0.36161
C          8.60081        27.78891        -0.16892
C          7.33300        27.01934        -0.01774
C          8.61686        29.27618         0.08995
C          7.47970        30.07368         0.13542
C         11.06984         3.32571         0.39609
C          9.81304         4.03922         0.72746
C         10.87387         6.18364        -0.19331
C          9.75683         5.54304         0.55636
C         10.83209         7.67861        -0.36533
C          9.63389         8.42232         0.11603
C         10.87676        10.60031        -0.09284
C          9.64254         9.83442         0.22812
C         10.97453        12.02840         0.26521
C          9.80407        12.74024         0.55495
C         10.99063        14.84955         0.08105
C          9.79861        14.15113         0.44866
C         10.95629        16.26263        -0.15128
C          9.78033        16.97356         0.14595
C         10.91177        19.23137        -0.22136
C          9.83889        18.42575         0.44531
C         10.87270        20.72011        -0.03133
C          9.87400        21.36447         0.87585
C         11.28459        23.49965         1.18272
C         10.12765        22.59431         1.37729
C         11.04286        24.97506         0.85268
C          9.83768        25.63566         0.61915
C         11.20411        27.84815        -0.08388
C          9.88459        27.02599        -0.00059
C         11.10742        29.27994         0.50227
C          9.86310        29.87037         0.54235
C         13.51250         3.35566         0.06415
C         12.22884         4.00304         0.10468
C         13.43146         6.20646        -0.41402
C         12.16840         5.43127        -0.32934
C         13.42370         7.62081        -0.44124
C         12.15147         8.38502        -0.56659
C         13.42801        10.57487        -0.12853
C         12.16735         9.88304        -0.43418
C         13.45313        11.95599         0.00689
C         12.20935        12.70547         0.07338
C         13.45544        14.81158        -0.21335
C         12.21834        14.11914         0.01473
C         13.42339        16.15724        -0.67942
C         12.15764        16.94827        -0.70419
C         13.42599        19.28428        -0.66494
C         12.15977        18.51931        -0.73663
C         13.44734        20.74785        -0.40614
C         12.15810        21.48227        -0.24622
C         13.54978        23.62216         0.20284
C         12.24335        22.92448         0.16506
C         13.53389        24.97281         0.78328
C         12.32073        25.66768         0.79672
C         13.57634        27.66040         0.34279
C         12.36082        27.08730         0.51552
C         13.58121        29.80969         0.48479
C         12.28597        30.06459         0.90448
C         15.96469         3.38558        -0.08551
C         14.69000         4.06225        -0.11105
C         15.87347         6.23670        -0.34419
C         14.66115         5.51556        -0.28686
C         15.87192         7.64040        -0.43650
C         14.64343         8.33248        -0.38225
C         15.96077        10.52692         0.07749
C         14.65180         9.77590        -0.02278
C         15.92953        11.99446         0.03277
C         14.71963        12.67422         0.05920
C         15.91518        14.80541        -0.30859
C         14.69815        14.11168        -0.12791
C         15.89988        16.11900        -0.82100
C         14.63384        16.65275        -1.17226
C         15.89832        19.25905        -0.67032
C         14.62784        18.83106        -1.18382
C         16.03991        20.63405        -0.08891
C         14.75255        21.40945        -0.03095
C         16.01196        23.54419        -0.00110
C         14.81467        22.89384         0.00524
C         16.11933        24.95313         0.45509
C         14.84897        25.63718         0.89331
C         16.08237        27.93797         0.75513
C         14.82771        27.12902         0.88547
C         16.05103        29.45299         0.67498
C         14.92048        30.26350         0.82316
C         18.44440         3.39930        -0.10416
C         17.16497         4.06262        -0.08591
C         18.44217         6.27696        -0.26434
C         17.15276         5.53962        -0.09038
C         18.43307         7.62930        -0.94921
C         17.13554         8.39516        -0.71039
C         18.49404        10.58376        -0.38355
C         17.19220         9.86447        -0.45635
C         18.49236        11.98691        -0.22714
C         17.23022        12.69026         0.09371
C         18.45909        14.93574        -0.39122
C         17.22121        14.20927        -0.02071
C         18.40364        16.35528        -0.57275
C         17.08027        16.94346        -0.72732
C         18.74607        19.37873        -0.30428
C         16.88814        18.31759        -0.39670
C         18.56582        20.78325        -0.53972
C         17.32179        21.39292        -0.30330
C         18.52257        23.67622        -0.64703
C         17.22616        22.84174        -0.47348
C         18.53481        25.10553        -0.24786
C         17.31033        25.79772         0.14718
C         18.51515        27.97247        -0.01542
C         17.29825        27.16616         0.37406
C         18.52881        29.34649         0.62921
C         17.35534        30.04320         0.83097
C         19.63170         4.07261        -0.24887
C         20.86756         6.22087        -0.53572
C         19.70030         5.50091        -0.39012
C         20.86355         7.65714        -0.53857
C         19.71144         8.40504        -0.63462
C         20.90115        10.62270        -0.58538
C         19.70532         9.86665        -0.55205
C         20.88937        12.00940        -0.52162
C         19.69172        12.74095        -0.35016
C         20.86062        14.96312        -0.61194
C         19.67539        14.21419        -0.41706
C         20.83280        16.34705        -0.73689
C         19.63838        17.09795        -0.71361
C         20.83811        19.31934        -1.39800
C         19.73873        18.57193        -0.84169
C         20.87410        20.70120        -1.33522
C         19.75858        21.50755        -0.91196
C         20.98914        23.67823        -0.68819
C         19.78837        22.92378        -0.75880
C         20.97788        25.03162        -0.41976
C         19.76999        25.76575        -0.17438
C         20.96547        27.86417         0.43851
C         19.80576        27.19164         0.14164
C         20.96581        29.25701         0.77523
C         19.79848        29.96618         0.88274
O          9.21771        23.17596         2.26970
O          2.53905         8.25301         1.89847
O         10.09024         4.97347         1.86165
O         11.35463        10.48911        -1.48670
O          9.25851        27.15732        -1.33232
O         15.74592        25.05978         1.88638
O         12.60953        23.72249        -0.98448
O         11.90887        17.71917        -1.92227
O         15.33988        20.82515         1.19527
O         15.45443        27.66152         2.09310
O         17.82485        18.77814         0.54715
O         17.85761         6.18427         1.06176
O         16.92860         9.35269        -1.82395
O          0.72227        24.18905         1.01978
O          2.44154        14.76859         0.86405
O         11.31077         8.01551        -1.70246
O          6.19816         7.00695         2.48878
O         13.69531        28.78271        -0.46925
O          6.33485        20.94062         2.26923
O         11.21601         5.53464        -1.45599
O         14.63593        17.73828        -2.05039
O          9.61220        18.50526         1.88913
O         12.75742        21.34638        -1.56536
O          6.52643        12.52776         2.32913
O         15.37074         9.94774         1.27776
O         17.32407        13.54880         1.28492
O          6.30103        28.67596        -1.38352
O          2.47597        16.93381        -2.36505
O         17.63096        23.37376        -1.78448
O         10.31659        20.12023        -1.23774
O          6.03861         2.12668         0.25072
H          6.02841         2.41995        -0.68309
O          2.62173        26.42804        -2.22045
H          2.76994        27.17555        -2.83694
O         18.38268        28.22412        -1.46062
H         19.18010        28.71844        -1.74617
O         11.99393        23.44018         2.45883
H         11.32651        23.54699         3.17136
O          8.99796        11.81489         2.54773
H          8.15330        11.83242         3.05900
O         11.53346        28.04398        -1.47535
H         10.69460        27.95023        -1.98831
O         18.47648         7.32281        -2.36906
H         18.15459         8.12681        -2.83813
O          2.30879        26.25098         1.41313
H          1.87898        25.55053         1.95521
O          2.32766        14.47289        -2.79484
H          2.68865        15.32941        -3.13421
O          8.84168        20.64434         2.86187
H          7.97330        20.44089         3.27708
H          1.14994         2.39717         0.32820
H         -0.97988         3.64871        -0.04016
H         -0.95587         6.12234        -0.16035
H         -0.45157         7.73255        -1.49188
H         -0.38327        10.14692        -1.92724
H         -0.65794        12.14749        -1.61856
H         -0.57070        14.52992        -2.10550
H         -0.70956        16.47598        -1.46100
H         -0.80304        18.85594        -1.07741
H         -0.77915        20.79208        -1.38267
H         -0.95888        23.18403        -0.98828
H         -1.05608        25.22355        -0.74131
H         -0.93500        27.61922        -1.20768
H          0.34854        29.76372        -0.85579
H          3.52411         2.36500         0.68216
H          2.46870        30.95103        -0.45034
H          6.03190         2.90347         2.14814
H          4.69611        30.85252         0.60535
H          8.47812         2.26372         0.68444
H          7.57659        31.08082         0.57262
H         11.10685         2.24098         0.58188
H          9.80021        30.92558         0.85725
H         13.55669         2.27164         0.24949
H         12.09818        30.91276         1.58248
H         15.96335         2.28507        -0.05409
H         15.08626        31.32127         1.08872
H         18.45279         2.30168        -0.02787
H         17.41337        31.10375         1.12663
H         20.57337         3.50406        -0.27994
H         21.83525         5.69883        -0.56541
H         21.83684         8.15678        -0.42463
H         21.86612        10.11328        -0.71139
H         21.84840        12.53746        -0.60748
H         21.83637        14.46022        -0.64016
H         21.78858        16.87888        -0.84775
H         21.70023        18.78611        -1.82428
H         21.77661        21.21369        -1.69834
H         21.95292        23.16864        -0.82951
H         21.93896        25.56197        -0.37910
H         21.92825        27.33449         0.46691
H         21.92568        29.74092         1.00245
H         19.81433        31.01144         1.22549
