         671
 CSIRO Nanostructure Databank - Neutral Graphene Oxide Data Set
C          6.02391        31.65955         0.45316
C          6.03835        33.00047         0.67605
C          8.39194        27.26818        -0.15068
C          8.33983        28.64543         0.37042
C          7.17493        29.51826         0.18913
C          8.50453        31.56960         0.66849
C          7.23981        30.87157         0.45575
C          8.52088        32.98018         0.78769
C          7.28042        33.71990         0.83787
C          8.51945        35.82884         1.05565
C          7.29460        35.09611         1.00113
C          8.51466        37.22487         1.16946
C         10.76929        23.00670        -1.34131
C         10.79589        24.50416        -0.94111
C          9.62664        25.15205        -0.61676
C         10.83522        27.21765         0.08918
C          9.57475        26.55183        -0.20809
C         10.88857        28.60347         0.34883
C          9.66899        29.37362         0.60878
C         10.97174        31.54042         0.61281
C          9.73730        30.85655         0.62102
C         10.99394        32.96652         0.69716
C          9.76166        33.68691         0.82944
C         10.98951        35.83630         0.90627
C          9.76814        35.11285         0.94017
C         10.96556        37.28094         0.93543
C          9.71270        37.97971         1.09548
C         10.86260        40.16336         0.96632
C          9.69843        39.39249         1.16459
C         10.86513        41.58046         1.10738
C         13.15129        18.82445        -0.43623
C         13.25736        20.24833         0.17989
C         11.99611        21.09362        -0.08374
C         13.29128        22.15502        -1.70302
C         11.97048        22.11579        -0.96847
C         13.23666        24.87356        -1.45935
C         12.02842        25.26925        -0.86133
C         13.30155        27.14470         0.10980
C         12.05289        26.51889        -0.17949
C         13.22185        28.43313         0.70942
C         12.12453        29.27264         0.56772
C         13.55621        31.51284         0.43452
C         12.22801        30.76667         0.23984
C         13.51576        32.98267         0.61855
C         12.22218        33.71131         0.67737
C         13.49462        35.87196         0.74682
C         12.21879        35.10897         0.78111
C         13.44121        37.38551         0.65456
C         12.13125        38.04746         0.73670
C         13.26710        40.19131         0.32302
C         12.09572        39.46470         0.66439
C         13.18939        41.66103         0.27523
C         12.01654        42.35233         0.86862
C         13.27748        44.50622         0.91126
C         12.07438        43.75049         1.03863
C         13.32434        45.88512         1.06211
C         15.81755        14.61670         0.34497
C         15.78767        15.98249         0.02376
C         14.52696        16.71507        -0.08806
C         15.71039        18.79222        -0.62434
C         14.46421        18.05382        -0.33165
C         15.71502        20.26945        -0.53552
C         14.55773        20.93889        -0.26119
C         15.71242        23.06329        -1.11230
C         14.42790        22.39137        -0.64350
C         15.73460        24.56462        -1.27296
C         14.50528        25.38135        -1.04412
C         15.90088        27.28125        -0.13138
C         14.55076        26.56980        -0.30408
C         15.85648        28.77392        -0.44916
C         15.03979        29.53554         0.30109
C         15.95460        31.64894        -0.37281
C         14.78415        30.94637         0.15138
C         15.95395        33.09268        -0.29901
C         14.78274        33.76957         0.30014
C         15.74851        35.97630        -0.30794
C         14.69191        35.23506         0.16651
C         15.76142        37.42844        -0.29467
C         14.57744        38.12448         0.07738
C         15.69107        40.30684        -0.26247
C         14.48927        39.53765         0.01237
C         15.71224        41.66495        -0.12042
C         14.46698        42.43000         0.09237
C         15.75477        44.59346         0.34721
C         14.58607        43.75545         0.81100
C         15.79235        45.92800         0.63982
C         14.56417        46.63206         1.04180
C         15.92349        48.68838         1.49763
C         14.60954        47.97738         1.32161
C         15.88031        50.19212         1.40521
C         18.30141        10.42126         1.12264
C         18.30552        11.84697         1.01053
C         17.07481        12.54348         0.82832
C         18.27180        14.66912         0.52903
C         17.04753        13.94064         0.58450
C         18.26987        16.01064         0.10892
C         17.02348        16.65757        -0.14275
C         18.28615        18.82621        -0.22193
C         17.02366        18.06693        -0.55059
C         18.26084        20.27650        -0.62598
C         16.99026        20.98939        -0.68689
C         18.19193        23.18325        -0.44187
C         16.98950        22.35747        -0.84032
C         18.25362        24.55417        -1.07106
C         17.03009        25.26392        -1.12240
C         18.21166        27.39822        -1.11627
C         17.01732        26.63917        -0.90882
C         18.14450        28.77329        -1.33878
C         16.80021        29.47421        -1.40322
C         17.99517        31.73675        -1.84238
C         16.92639        30.96416        -1.07065
C         18.19445        33.15579        -1.33183
C         17.01518        33.81313        -0.77619
C         18.18078        36.03334        -1.11267
C         16.91852        35.27831        -0.87735
C         18.18543        37.47855        -0.80709
C         16.95643        38.13472        -0.58485
C         18.21708        40.32543        -0.36343
C         16.93458        39.62594        -0.78525
C         18.23982        41.69686        -0.34250
C         16.95076        42.43167        -0.40403
C         18.24608        44.63177        -0.14988
C         16.95098        43.91943        -0.21091
C         18.24775        46.00924         0.04231
C         17.02058        46.69701         0.43988
C         18.24450        48.82657         0.39671
C         17.03731        48.04190         0.71019
C         18.25263        50.29866         0.65875
C         17.02882        50.94255         1.21546
C         18.35109        53.01386         1.56751
C         17.09920        52.33264         1.48418
C         18.39399        54.37120         1.88022
C         20.72802         6.13633         1.68667
C         20.68425         7.57993         2.08872
C         19.48821         8.29650         1.52279
C         20.72459        10.43270         1.67676
C         19.46665         9.68210         1.42244
C         20.77634        11.91888         1.41125
C         19.51922        12.57392         1.04582
C         20.80601        14.63293         0.39185
C         19.55320        14.06831         1.03537
C         20.74327        15.95825        -0.09674
C         19.52822        16.66755        -0.15715
C         20.77367        18.80907        -0.63876
C         19.48351        18.04469        -0.78312
C         20.74259        20.23252        -0.73928
C         19.46351        20.94063        -0.74600
C         20.68618        23.11236        -1.16305
C         19.56106        22.41193        -0.40445
C         20.73584        24.58950        -1.14620
C         19.47903        25.28020        -1.10384
C         20.68296        27.41004        -1.29441
C         19.45910        26.68813        -1.22599
C         20.65661        28.82226        -1.45158
C         19.36588        29.48014        -1.72321
C         20.61090        31.70485        -1.83752
C         19.32674        30.97038        -1.95561
C         20.51600        33.17813        -2.24451
C         19.36612        33.84308        -1.50624
C         20.65123        36.08425        -1.42824
C         19.47366        35.25753        -0.96837
C         20.61920        37.45632        -1.09529
C         19.42555        38.14244        -0.76187
C         20.72001        40.32353        -0.52863
C         19.48729        39.53197        -0.16004
C         20.70946        41.75163        -0.45940
C         19.47478        42.45985        -0.31067
C         20.71132        44.58487        -0.38142
C         19.47900        43.88091        -0.30563
C         20.69575        46.07157        -0.61397
C         19.48798        46.75170        -0.02384
C         20.75996        48.86313         0.18398
C         19.52264        48.10994         0.21061
C         20.76838        50.22055         0.50418
C         19.56504        50.95992         0.84118
C         20.86655        52.94164         1.54048
C         19.58131        52.25473         1.32623
C         20.91306        54.36186         1.98260
C         19.63115        55.10538         2.34461
C         20.86412        57.26007         1.91741
C         19.69688        56.57281         1.98375
C         20.85328        58.77585         1.78213
C         23.19307         3.35067         1.43449
C         21.98190         4.03033         1.40647
C         23.19146         6.15257         1.73173
C         21.93564         5.44710         1.59472
C         23.20400         7.57710         1.75796
C         21.97761         8.29652         1.77047
C         23.20789        10.39560         1.46975
C         21.98769         9.67972         1.61679
C         23.21338        11.80066         1.09311
C         22.06070        12.54694         1.00548
C         23.24762        14.49327         0.00335
C         22.04564        13.90933         0.44278
C         23.28585        15.86406        -0.57573
C         21.97777        16.62325        -0.60125
C         23.20840        18.82548        -0.60167
C         21.97594        18.11244        -0.60919
C         23.19452        20.25883        -0.67486
C         21.95447        20.93923        -0.83443
C         23.32368        23.04590        -1.48888
C         21.96377        22.35769        -1.29042
C         23.27130        24.62247        -1.55435
C         21.93655        25.27940        -1.22274
C         23.13121        27.46646        -1.08976
C         21.92046        26.71332        -1.22593
C         23.06930        28.87551        -1.14052
C         21.84227        29.56652        -1.40396
C         23.06034        31.74993        -1.69363
C         21.77482        31.02044        -1.60014
C         23.01665        33.25235        -1.47489
C         21.88832        33.95567        -2.24746
C         23.09606        36.04925        -1.62004
C         21.87093        35.39891        -1.72598
C         23.08895        37.54964        -1.57166
C         21.92878        38.12573        -0.74048
C         23.11729        40.35219        -0.97197
C         21.91612        39.64024        -0.78601
C         23.15434        41.77046        -0.82238
C         21.93098        42.47452        -0.54716
C         23.18944        44.62589        -0.40924
C         21.94125        43.90105        -0.44654
C         23.22498        46.02471        -0.35465
C         21.99652        46.77420        -0.31364
C         23.27853        48.83895        -0.00223
C         22.00844        48.14339        -0.06983
C         23.32084        50.20002         0.33871
C         22.05338        50.95251         0.43649
C         23.37323        52.99027         1.28146
C         22.08784        52.38439         0.87693
C         23.39313        54.34577         1.63214
C         22.11073        55.13275         1.44355
C         23.32249        57.16693         2.25109
C         22.15117        56.55259         1.94924
C         23.37712        58.62401         2.52127
C         22.11707        59.44496         2.30853
C         23.52991        61.47324         2.30685
C         22.30208        60.88155         2.08207
C         24.40341         4.03251         1.61813
C         25.64414         6.17522         1.89487
C         24.41869         5.44173         1.74999
C         25.67290         7.55268         1.92083
C         24.44179         8.29181         1.78401
C         25.64584        10.49403         1.87145
C         24.42016         9.69997         1.64528
C         25.70819        11.85416         1.35551
C         24.52311        12.28693         0.51264
C         25.78207        14.58909         0.38880
C         24.53050        13.77009         0.16115
C         25.63384        16.11115         0.38151
C         24.64221        16.60952        -0.73253
C         25.55791        18.96966        -0.90761
C         24.45635        18.14903        -0.69364
C         25.63696        20.36390        -0.60927
C         24.40060        21.01785        -0.56044
C         25.61261        23.21780        -0.38968
C         24.27498        22.51726        -0.39729
C         25.60115        24.62409        -0.42769
C         24.40858        25.34674        -0.82337
C         25.49721        27.53382        -0.18310
C         24.34994        26.73042        -0.75592
C         25.58837        28.90191        -0.90266
C         24.26510        29.68955        -0.69944
C         25.52042        31.92762        -0.98394
C         24.32627        31.05014        -1.36543
C         25.59706        33.17644        -1.89826
C         24.33573        33.97192        -1.73377
C         25.64227        36.07692        -1.71878
C         24.36278        35.34564        -1.72010
C         25.66369        37.49107        -1.67490
C         24.41872        38.18055        -1.16210
C         25.60141        40.40219        -1.65556
C         24.32519        39.65515        -1.46712
C         25.63010        41.72496        -0.97656
C         24.37767        42.46937        -0.84225
C         25.72908        44.57008        -0.44317
C         24.44278        43.82180        -0.18036
C         25.73827        45.98774        -0.39853
C         24.49252        46.73872        -0.32623
C         25.73955        48.97600        -0.53292
C         24.50687        48.12756        -0.22523
C         25.77775        50.24778         0.32161
C         24.56546        50.84066         0.65389
C         25.84759        52.78225         1.72974
C         24.51800        52.04776         1.57850
C         25.85429        54.25982         2.01860
C         24.57056        54.98752         2.03382
C         25.71475        57.15580         1.55995
C         24.63367        56.42960         2.40415
C         25.81937        58.57774         2.02138
C         24.68766        59.30322         2.37763
C         24.70814        60.71964         2.48693
C         27.01959         8.23916         2.06050
C         28.17616        10.53467         2.01107
C         26.96392         9.75552         2.16865
C         28.11286        11.92923         1.91708
C         26.88116        12.58886         1.48414
C         28.05191        14.74966         1.46107
C         26.93254        13.98819         1.12742
C         28.08393        16.18027         1.22138
C         27.00894        16.76715         0.45918
C         28.12332        18.99170         0.50590
C         27.27688        17.99497        -0.10788
C         28.15891        20.40514         0.05849
C         26.90241        21.06623        -0.30053
C         27.97310        23.19950         0.42774
C         26.80779        22.46467        -0.17197
C         27.99591        24.66484         0.09926
C         26.82584        25.36933        -0.13328
C         27.98571        27.56270         0.04467
C         26.82489        26.81760        -0.16464
C         28.11378        28.94943        -0.37239
C         26.80972        29.74697        -0.45437
C         27.83981        31.77208        -1.70247
C         26.79237        31.11817        -1.12077
C         28.02288        33.21574        -1.69287
C         26.87286        33.95430        -1.66577
C         28.13313        36.07043        -1.65134
C         26.87426        35.38743        -1.69625
C         28.12723        37.49729        -1.68930
C         26.88386        38.18525        -1.69908
C         28.16908        40.37519        -1.56827
C         26.90320        39.67162        -1.99391
C         28.18677        41.73631        -1.25063
C         26.95483        42.40801        -0.78518
C         28.18543        44.54569        -0.59721
C         26.93558        43.87075        -0.60743
C         28.18183        45.93550        -0.29482
C         26.97942        46.66388        -0.31501
C         28.14655        48.81377         0.35113
C         27.08469        48.16013        -0.57151
C         28.28246        50.31748         0.01248
C         27.01656        50.95443         0.53414
C         28.31338        52.93105         1.26278
C         27.06762        52.19060         1.14634
C         28.30562        54.29287         1.54972
C         27.08475        55.04076         1.71467
C         27.02135        56.40218         1.56176
C         29.28068        12.71385         2.10226
C         30.42204        14.87786         2.20224
C         29.25804        14.10956         1.96003
C         30.45321        16.26694         1.95349
C         29.26255        16.90626         1.45609
C         30.53710        19.12197         1.30584
C         29.27733        18.36940         1.30512
C         30.61271        20.43272         0.77599
C         29.37792        21.10618         0.26718
C         30.40289        23.36433        -0.05914
C         29.29787        22.53883         0.14769
C         30.52558        24.71047         0.36822
C         29.21036        25.37078         0.53337
C         30.47532        27.55036         0.75172
C         29.17158        26.85709         0.56763
C         30.49824        29.01126         0.42978
C         29.36571        29.56360        -0.33360
C         30.60349        31.71395        -0.62229
C         29.67809        30.78998        -1.03297
C         30.43760        33.23901        -0.68927
C         29.42674        33.82504        -1.72474
C         30.58019        36.05864        -1.40666
C         29.37012        35.35172        -1.56205
C         30.61345        37.50308        -1.52687
C         29.37383        38.22925        -1.70357
C         30.64469        40.38277        -2.04875
C         29.37319        39.63949        -1.73735
C         30.64000        41.83946        -1.62184
C         29.41446        42.49014        -1.24294
C         30.63417        44.70815        -1.16595
C         29.40382        43.85757        -0.91977
C         30.75867        45.79658        -0.10173
C         29.46451        46.58069         0.08568
C         30.76037        48.79351         0.19013
C         29.47971        48.05173         0.34882
C         30.76163        50.17319         0.40023
C         29.55642        50.92114         0.56617
C         29.54494        52.21942         1.03656
C         31.60428        17.04973         2.18552
C         32.86670        19.14857         2.09685
C         31.68187        18.43171         1.84964
C         32.96856        20.50542         1.71954
C         31.89239        21.09288         0.94855
C         33.13774        23.26039         0.98147
C         32.20463        22.37255         0.42730
C         33.03348        24.70052         0.83087
C         31.76526        25.38388         0.57126
C         32.93841        27.57023         0.75283
C         31.74919        26.81897         0.73262
C         32.96348        29.02103         0.60797
C         31.77987        29.70892         0.35935
C         32.98037        31.94753         0.19763
C         31.71056        31.17178         0.18739
C         32.97120        33.28319        -0.45259
C         31.78583        33.95011        -0.79092
C         33.01959        36.07827        -0.89461
C         31.80624        35.34960        -1.08599
C         33.06319        37.52241        -1.08550
C         31.83397        38.20797        -1.40783
C         33.07906        40.33653        -1.62607
C         31.89204        39.64401        -1.59616
C         33.01298        41.72962        -2.16227
C         31.84585        42.54642        -1.66854
C         33.13540        44.58004        -0.92516
C         31.92327        43.91010        -1.24060
C         33.14377        45.98127        -0.68095
C         31.96662        46.68086        -0.36251
C         31.93794        48.06275        -0.12587
C         34.13724        21.25712         1.99495
C         35.34651        23.42223         2.05608
C         34.23305        22.65318         1.71688
C         35.31369        24.91572         1.97563
C         34.15240        25.47472         1.19193
C         35.40185        27.58617         0.86560
C         34.17657        26.88382         0.95509
C         35.41243        28.97054         0.51654
C         34.22834        29.70602         0.49761
C         35.40863        31.73361        -0.44902
C         34.30249        31.23504         0.49321
C         35.46242        33.24290        -0.44042
C         34.22524        33.95829        -0.52544
C         35.45655        36.06654        -0.32031
C         34.21048        35.36921        -0.62865
C         35.47807        37.58889        -0.50797
C         34.26979        38.22261        -1.02415
C         35.58982        40.37097        -0.87070
C         34.41920        39.63419        -1.54796
C         35.64084        41.70771        -0.54908
C         34.48114        42.56926        -0.35177
C         34.39593        43.84418        -0.86427
C         36.61483        25.56407         1.59407
C         37.87289        27.60903         1.06350
C         36.65255        26.87761         1.13589
C         37.93757        28.94974         0.60565
C         36.70398        29.55514        -0.02551
C         37.89967        31.73318        -0.18058
C         36.72766        31.07025        -0.10416
C         37.97352        33.16518        -0.66911
C         36.68423        33.92551        -0.48062
C         37.95301        36.05711        -0.31562
C         36.71849        35.33382        -0.39031
C         37.97560        37.45256        -0.43302
C         36.80248        38.23601        -0.64766
C         36.81664        39.61650        -0.78530
C         39.11494        29.66699         0.57675
C         40.38389        31.80458         0.21464
C         39.20472        30.95939        -0.18679
C         40.35413        33.15467         0.21739
C         39.17159        33.92174        -0.13148
C         39.16127        35.28808        -0.07862
O         29.47024        47.10101         1.48054
O         14.46785        33.36759         1.68172
O         15.69615        23.68334        -2.46582
O         25.51458        13.99132        -0.91657
O         33.76790        42.09433        -3.06606
O         26.12653        10.28557         3.24719
O         21.20657        53.31188         2.94597
O         17.33099        35.70657        -2.24638
O          8.91140        28.80580         1.72802
O         32.09930        31.95544         1.39797
O         13.54658        42.30667        -1.02037
O         35.32312        36.98727         0.82125
O         26.33812        41.65074         0.34806
O         24.67630        40.23993        -2.77448
O         22.54848        59.03670         3.65538
O         22.50405        15.99062        -1.82856
O         21.97204        52.08726        -0.54604
O         13.50585        21.56459        -2.75315
O         28.93375        26.07213         1.80939
O         23.89886        31.14515        -2.75455
O         19.96573        22.27593         0.94694
O         26.04417        53.26855         3.10607
O         16.41516        18.33349        -1.84160
O         19.30370        30.06542        -3.10604
O         16.75814        43.31659        -1.56892
O         30.27060        28.54851         1.81638
O         18.02165        49.80845        -0.70898
O         26.73564        18.34683        -1.33767
O         28.12067        18.96852         1.98014
O         20.70437        11.37678         2.80108
O         14.34929        28.93048         1.36349
O         31.50620        22.79899        -0.70654
O         21.05879        22.53175        -2.45242
O         28.91919        31.03585        -2.17389
O         13.78036        36.68823         1.92590
O         38.16820        33.04463        -2.11948
H         38.85054        32.33934        -2.25053
O         17.90016        23.56104         0.93861
H         18.66026        23.13904         1.45848
O         31.02152        45.08934         1.13607
H         30.78634        45.70804         1.86571
O         25.18295        16.27386        -2.00930
H         24.43167        16.21822        -2.63948
O         21.86941        55.23484         0.01035
H         22.65398        55.65490        -0.40141
O         19.25232        17.85247        -2.20287
H         20.04203        17.41644        -2.58693
O         33.49514        42.03066         0.41992
H         32.78903        42.69620         0.56741
O         25.08656        56.54718         3.77261
H         24.47005        56.04923         4.34870
O         13.33951        20.04588         1.61021
H         13.42737        20.92498         2.03388
O         22.07255        37.76175         0.67213
H         21.29616        38.15542         1.14579
O         19.65919        14.46400         2.46735
H         18.93733        14.01039         2.95325
O         39.40025        30.57712        -1.60395
H         38.66917        29.94529        -1.81565
O         19.51316        55.08156         3.80393
H         19.90684        54.22394         4.09229
O         17.48181        31.85505        -3.20438
H         18.25561        32.06509        -3.77885
O         27.73173        23.16199         1.88578
H         28.15458        23.95494         2.28466
O         25.19155        27.73242         1.23371
H         25.97066        28.17680         1.64247
O         27.02866        39.71284        -3.45377
H         26.11248        39.63761        -3.81473
O         24.47123        43.52147         1.26883
H         25.19057        42.85233         1.39011
O         30.42307        45.39214        -2.43989
H         30.47319        44.72106        -3.15308
O         23.86870        22.55070        -2.71749
H         23.29750        22.88065        -3.44464
O         24.17815        51.48190         2.88381
H         24.62223        52.05656         3.55331
O         22.87530        37.98147        -2.94292
H         22.16326        37.43360        -3.33496
O         25.29647        32.38993         0.37067
H         25.19029        31.57388         0.92489
O         13.88020        23.15725         0.45491
H         14.59393        23.29828         1.11279
O         25.72559        28.61047        -2.30165
H         25.64988        29.44675        -2.80997
O         12.17628        30.74541        -1.24393
H         11.31975        30.34735        -1.51112
O         29.99735        33.55389        -3.02589
H         29.34338        33.80634        -3.71051
O         19.63222        39.27551         1.29900
H         19.63284        40.14635         1.75232
O         23.63774        22.81435         0.86860
H         24.22110        22.50783         1.59400
O         19.70922        59.33164         2.43704
H         19.81469        59.17865         3.39926
O         27.54294        48.18990        -1.95137
H         28.40260        47.72109        -2.00972
O         16.30362        29.36958        -2.76253
H         16.74309        30.08455        -3.28708
O         16.32681        27.12251         1.25213
H         15.68707        27.63009         1.80523
O         35.04698        25.35684         3.38575
H         34.12829        25.09049         3.60629
O         16.31082        48.44242         2.92102
H         16.21108        47.48007         3.08571
O         24.03509        29.99783         0.69974
H         24.17362        29.15158         1.20458
O         20.54645         7.60769         3.56528
H         20.63383         8.54380         3.84811
O         27.61024        48.77186         1.68700
H         27.99306        47.97579         2.12867
O         28.35895        50.54525        -1.41199
H         27.48232        50.32780        -1.81002
O         36.75372        29.13048        -1.43714
H         36.00384        29.59544        -1.88454
O         24.97657        16.48291         1.62641
H         25.63805        16.47999         2.35055
O         19.66982        35.11875         0.47765
H         20.57928        34.77830         0.62806
O         23.46921        24.94200        -2.96446
H         23.50667        25.91818        -3.05184
O         24.65929        11.55223        -0.74553
H         25.22492        12.11385        -1.32681
O         22.72232        33.40722        -0.05798
H         23.54632        33.14231         0.42876
O         22.34039        34.04782        -3.61406
H         21.69582        33.55250        -4.17559
O         20.03757        33.12443        -3.63646
H         19.59181        33.97730        -3.83282
O         25.73804        32.79293        -3.29371
H         24.87693        32.42616        -3.60575
O         24.63775        38.11671         0.27254
H         23.77960        37.95453         0.73813
O         14.93851        43.35930         2.18645
H         14.86546        44.15529         2.75474
O         13.15802        24.05821        -2.53433
H         14.06930        23.92122        -2.92144
O         29.89693        33.55821         0.61871
H         30.55364        33.23890         1.28402
O         12.76983        18.90887        -1.80848
H         13.30942        19.59407        -2.26563
O         34.70910        31.62612         1.82342
H         33.89891        31.62415         2.38184
O         16.88430        39.78766        -2.24728
H         16.71925        40.73731        -2.43723
O         27.85983         7.88718         0.94759
H         27.36651         8.05133         0.11790
O         25.51333        49.50218        -1.87229
H         25.59997        48.75779        -2.50665
O         35.04449        31.29990        -1.79753
H         35.59911        31.80921        -2.42811
O         18.38776        18.81768         1.22863
H         19.00585        19.53242         1.49668
O         34.87084        39.53351        -2.94070
H         34.79754        40.44518        -3.31886
O         30.71007        40.37345        -3.51786
H         31.56869        40.77009        -3.78253
O         25.17321        57.14667         0.19500
H         25.82678        57.58680        -0.38863
O         20.52592        46.21163        -2.07866
H         19.65284        45.82773        -2.31092
O         26.59884        30.02967         0.97612
H         27.36140        30.56227         1.29154
O          9.57421        22.42357        -0.83340
H          9.59770        22.46583         0.14416
H          5.06998        31.13373         0.30030
H          5.09837        33.57085         0.70158
H          7.45496        26.81104        -0.50216
H          6.21195        29.06951        -0.09966
H          6.34426        35.64849         1.04959
H          7.55449        37.75285         1.26890
H         10.69683        22.96567        -2.46272
H          8.67655        24.59820        -0.66813
H          8.74369        39.90397         1.35864
H          9.94328        42.07819         1.44491
H         12.34802        18.25958         0.10098
H         11.11038        20.83857         0.52166
H         11.15106        44.28713         1.30763
H         12.39001        46.44317         1.22783
H         14.87587        14.05282         0.42522
H         13.59975        16.15035         0.09656
H         13.68466        48.50897         1.59374
H         14.97311        50.69342         1.77807
H         17.34699         9.88832         1.00204
H         16.13283        11.97662         0.83348
H         16.18300        52.87331         1.76581
H         17.43529        54.88997         2.04075
H         19.77936         5.58597         1.59180
H         18.56789         7.72471         1.32902
H         18.75020        57.13557         1.97294
H         20.75856        59.03585         0.69224
H         23.20397         2.25812         1.31418
H         21.04047         3.47726         1.27768
H         23.61792        62.56707         2.23298
H         21.43951        61.48461         1.76472
H         25.35129         3.47613         1.63755
H         26.58829         5.61464         1.96474
H         26.80106        59.07795         2.01525
H         25.67754        61.23875         2.50686
H         27.53151         7.84027         2.97577
H         29.15144        10.02704         2.02619
H         29.25652        54.84674         1.52573
H         27.94222        56.96070         1.32773
H         30.21258        12.21797         2.41146
H         31.32793        14.37310         2.56900
H         31.72627        50.70189         0.45745
H         30.49134        52.71044         1.31147
H         32.49774        16.56793         2.60929
H         33.71331        18.65210         2.59224
H         34.11139        46.50534        -0.65183
H         32.87144        48.63259        -0.25841
H         34.97209        20.76203         2.51188
H         36.18895        22.95250         2.58616
H         36.63490        42.16354        -0.40234
H         35.28514        44.28068        -1.34075
H         37.55462        25.03735         1.81748
H         38.80088        27.12327         1.40301
H         38.94671        37.97004        -0.40661
H         37.76561        40.16320        -0.66424
H         40.04085        29.21891         0.97037
H         41.31009        31.27876         0.49226
H         41.25064        33.71830         0.52107
H         40.07624        35.83203         0.20464
