         204
 CSIRO Nanostructure Databank - Neutral Graphene Oxide Data Set
C        -10.52393         0.61076         1.98396
C         -9.48905         1.37820         1.32364
C         -8.44487         0.69949         0.62766
C         -7.37069         1.46404         0.07184
C         -6.23152         0.78985        -0.52057
C         -5.05150         1.45537        -0.80788
C         -3.82056         0.73145        -1.11146
C         -2.62390         1.41392        -1.11627
C         -1.33028         0.72101        -0.90359
C         -0.04083         1.46684        -0.97118
C          1.20090         0.69915        -0.84060
C          2.44257         1.42956        -0.68010
C          3.65886         0.71430        -0.41930
C          4.87831         1.42262        -0.21621
C          6.10397         0.71354         0.01309
C          7.32426         1.43139         0.21837
C          8.54245         0.73092         0.44467
C          9.76574         1.45963         0.64381
C         10.98306         0.71965         0.87320
C         -9.49567         2.77366         1.39288
C         -8.45936         3.53999         0.79958
C         -7.37980         2.85991         0.16013
C         -6.32805         3.64206        -0.58144
C         -5.00486         2.91011        -0.69769
C         -3.86237         3.61035        -0.97834
C         -2.60770         2.88536        -1.28180
C         -1.28452         3.60565        -1.36989
C         -0.03238         2.83620        -1.10036
C          1.26430         3.61357        -1.23375
C          2.46726         2.84081        -0.73918
C          3.66154         3.54708        -0.45268
C          4.87818         2.84331        -0.21576
C          6.10193         3.55963         0.00418
C          7.32229         2.85422         0.20579
C          8.54593         3.57265         0.40757
C          9.75358         2.85231         0.61746
C         -8.46162         4.95258         0.87824
C         -7.32886         5.71075         0.48572
C         -6.18536         5.05702        -0.07975
C         -5.01874         5.77360        -0.33305
C         -3.85255         5.09649        -0.95959
C         -2.54150         5.85125        -1.06323
C         -1.20401         5.15280        -1.39584
C         -0.00244         5.73658        -0.67866
C          1.19041         5.02309        -0.66106
C          2.42263         5.69679        -0.36364
C          3.65895         4.98525        -0.34329
C          4.86948         5.68633        -0.10818
C          6.10247         4.97741         0.02877
C          7.32874         5.69117         0.23498
C          8.52646         4.98558         0.40783
C         -7.28895         7.10767         0.69050
C         -6.12468         7.83913         0.42579
C         -4.95532         7.16841        -0.04949
C         -3.71174         7.87964        -0.13605
C         -2.50538         7.21401        -0.47095
C         -1.26705         7.85390        -0.23576
C         -0.02395         7.13093        -0.33074
C          1.18430         7.80973        -0.05395
C          2.43100         7.10407        -0.14984
C          3.65949         7.81483        -0.06133
C          4.87054         7.11606        -0.01339
C          6.12079         7.82235         0.18182
C          7.30249         7.12433         0.29189
C         -6.08047         9.25689         0.67531
C         -4.90665         9.94108         0.58100
C         -3.68219         9.26179         0.24780
C         -2.45801         9.92755         0.34099
C         -1.25002         9.22708         0.16877
C         -0.00695         9.87424         0.43942
C          1.17992         9.19152         0.33910
C          2.47545         9.86145         0.73502
C          3.62516         9.32696        -0.12776
C          4.94273         9.97093         0.21245
C          6.08873         9.27160         0.31354
C        -10.52557        -0.74542         1.94382
C         -9.54395        -1.47870         1.17085
C         -8.48671        -0.73779         0.48748
C         -7.49142        -1.40286        -0.22206
C         -6.44160        -0.62051        -0.97375
C         -5.18001        -1.41561        -1.23652
C         -3.86915        -0.72895        -1.44683
C         -2.53584        -1.50628        -1.44183
C         -1.31355        -0.77710        -0.93332
C         -0.00714        -1.48892        -0.95854
C          1.21470        -0.70779        -0.83781
C          2.45532        -1.43250        -0.63314
C          3.66621        -0.71458        -0.39570
C          4.88857        -1.42353        -0.17305
C          6.10953        -0.70170         0.03821
C          7.33383        -1.40393         0.27673
C          8.54648        -0.68751         0.47793
C          9.77367        -1.40016         0.71395
C         10.98660        -0.64290         0.90894
C         -9.58449        -2.85236         1.13323
C         -8.71457        -3.60924         0.23715
C         -7.60257        -2.83936        -0.51069
C         -6.40975        -3.59780        -0.98455
C         -5.39531        -2.72928        -1.57022
C         -3.51696        -3.83008        -1.64294
C         -2.43864        -2.98949        -1.32062
C         -1.23389        -3.62751        -0.94928
C          0.00108        -2.86684        -0.92936
C          1.28672        -3.62817        -1.10399
C          2.48567        -2.84701        -0.63030
C          3.68631        -3.55380        -0.38613
C          4.90357        -2.84336        -0.16586
C          6.14095        -3.55117         0.07314
C          7.34527        -2.82626         0.30639
C          8.57059        -3.53008         0.54541
C          9.77061        -2.79190         0.74941
C         -8.43730        -5.00989         0.46814
C         -7.33107        -5.66784        -0.07284
C         -6.25698        -4.96874        -0.79719
C         -5.03959        -5.83772        -1.28041
C         -3.65554        -5.14694        -1.19229
C         -2.44124        -5.77663        -0.84008
C         -1.22720        -5.04441        -0.78896
C          0.03064        -5.74140        -0.54607
C          1.23703        -5.05186        -0.59314
C          2.48621        -5.73319        -0.38368
C          3.68424        -4.99823        -0.37001
C          4.97089        -5.69902        -0.31097
C          6.18342        -4.96017         0.04548
C          7.38119        -5.66709         0.36570
C          8.56062        -4.94090         0.59837
C         -7.25685        -7.05599         0.20858
C         -6.08776        -7.80593        -0.00808
C         -4.96505        -7.19638        -0.58001
C         -3.73699        -7.99122        -0.66827
C         -2.40119        -7.24592        -0.77143
C         -1.18034        -7.90209        -0.30607
C          0.01717        -7.15998        -0.24850
C          1.23598        -7.83785         0.03744
C          2.48058        -7.14957        -0.07105
C          3.67310        -7.85171         0.19839
C          4.96787        -7.21791        -0.03736
C          6.18719        -7.82476         0.52984
C          7.34996        -7.09307         0.59644
C         -6.06049        -9.19969         0.40143
C         -4.92141        -9.93822         0.36107
C         -3.67847        -9.33963        -0.06029
C         -2.47305        -9.96650         0.15560
C         -1.20732        -9.28638         0.03600
C         -0.01404        -9.92379         0.40757
C          1.21508        -9.22696         0.39409
C          2.42945        -9.87296         0.75471
C          3.64618        -9.19734         0.67997
C          4.89430        -9.84178         1.04348
C          6.08951        -9.18876         0.99543
O          1.45777        -3.75215        -2.56646
H          2.27539        -4.27246        -2.72114
O          1.45388         3.80766        -2.67362
H          0.69725         4.36674        -2.98592
O         -4.51723        -3.33500        -2.46258
O          5.14937        -6.68337        -1.38717
O         -1.98198         3.18457        -2.60220
O         -0.91048         5.48285        -2.78508
H         -1.70609         5.20603        -3.29904
O         -3.45033         5.74761        -2.21811
O         -5.28556        -6.12953        -2.67874
H         -4.56325        -6.73112        -2.97210
O         -8.84082        -3.22753        -1.18367
O          3.29470         9.70514        -1.49534
H          3.96682         9.30899        -2.08820
O         -6.82528         3.76078        -1.96013
H         -6.13278         4.21433        -2.48729
O          2.73966         9.60599         2.12294
H          2.80332         8.63623         2.24685
O         -7.03252        -0.44269        -2.31704
H         -7.35347        -1.31684        -2.62862
O         -1.48089        -0.08921         0.35672
O         -3.11050        -1.00397        -2.67896
O         -3.02696        -7.87586        -1.95373
H         11.92287        -1.19217         1.08680
H         11.91642         1.28220         1.02272
H         10.68948         3.41008         0.77096
H          9.46416         5.53848         0.56663
H          8.24610         7.66551         0.45739
H          7.03945         9.78660         0.52048
H          4.95166        11.06645         0.31625
H          2.38997        10.96844         0.61343
H         -0.01501        10.92637         0.76028
H         -2.43227        10.98882         0.62840
H         -4.86398        11.01653         0.80634
H         -7.00678         9.76764         0.97541
H         -8.17604         7.62129         1.08939
H         -9.31795         5.46697         1.33824
H        -10.31112         3.28880         1.92193
H        -11.30030         1.15482         2.54147
H        -11.30706        -1.31946         2.46289
H        -10.29137        -3.40224         1.77284
H         -9.09115        -5.56402         1.15864
H         -8.11790        -7.53801         0.69327
H         -6.99881        -9.64269         0.76498
H         -4.91445       -10.98379         0.70154
H         -2.46980       -10.98522         0.57266
H         -0.03189       -10.98285         0.70378
H          2.40493       -10.92524         1.07416
H          4.85067       -10.88187         1.39855
H          7.00999        -9.69390         1.32380
H          8.26910        -7.57215         0.96726
H          9.49046        -5.47857         0.83589
H         10.70902        -3.33648         0.93192
