         276
 CSIRO Nanostructure Databank - Neutral Graphene Oxide Data Set
C        -11.12795         0.70289         0.60601
C         -9.91280         1.48845         0.45695
C         -8.63757         0.78357         0.74858
C         -7.41284         1.32912         0.09222
C         -6.13387         0.60312         0.28753
C         -4.87459         1.18328        -0.36104
C         -3.63192         0.72819         0.38283
C         -2.38333         1.49993         0.21897
C         -1.15786         0.76675        -0.13174
C          0.13596         1.56117        -0.36825
C          1.32144         0.64549         0.04616
C          2.66997         1.38368         0.12676
C          3.81769         0.84521        -0.73988
C          5.15616         1.53919        -0.53864
C          6.35084         0.93286        -0.83830
C          7.59064         1.71748        -0.77403
C          8.86391         0.99316        -0.46088
C         10.05260         1.76773         0.14514
C         10.77843         0.99807         1.23209
C         -9.89145         2.83435         0.19119
C         -8.65061         3.57542         0.00599
C         -7.44236         2.77411        -0.31919
C         -6.15683         3.50254        -0.60557
C         -4.87045         2.71776        -0.61961
C         -3.51780         3.46796        -0.67197
C         -2.41815         2.85399         0.14388
C         -1.19200         3.55988         0.60628
C          0.11828         2.82993         0.50378
C          1.41234         3.57198         0.79623
C          2.70148         2.82142         0.55381
C          4.05019         3.56751         0.53404
C          5.04134         3.02419        -0.50217
C          6.27470         3.84403        -0.79916
C          7.55301         3.10268        -0.66902
C          8.68105         3.85307        -0.09590
C          9.73730         3.19733         0.46856
C         -8.55759         4.94099         0.04115
C         -7.32095         5.67538        -0.24685
C         -6.11432         4.96746        -0.48123
C         -4.85988         5.68957        -0.93709
C         -3.55597         4.99486        -0.50805
C         -2.43135         5.72854         0.18194
C         -1.33539         5.03040         1.00724
C          0.02899         5.82344         1.00216
C          1.36212         5.06130         0.99999
C          2.63858         5.92792         0.96913
C          3.95659         5.11445         0.68394
C          5.16273         5.91635         0.29913
C          6.22894         5.37624        -0.65967
C          7.53309         6.04487        -0.30345
C          8.64143         5.31005        -0.02117
C         -7.35791         7.06916        -0.35658
C         -6.19987         7.86382        -0.92242
C         -4.89166         7.16754        -0.61378
C         -3.78195         7.85966        -0.24821
C         -2.57622         7.21265         0.34631
C         -1.29917         7.99888         0.40366
C          0.02101         7.31807         0.76282
C          1.30328         8.04764         0.38789
C          2.46144         7.09557        -0.05381
C          3.73713         7.93682        -0.25766
C          5.06173         7.43967         0.30707
C          6.27738         8.15863        -0.23115
C          7.47270         7.49959        -0.33355
C         -6.21200         9.30492        -0.47688
C         -5.08558         9.98619        -0.19598
C         -3.78184         9.33054        -0.23375
C         -2.59651         9.99286        -0.34397
C         -1.33695         9.18765        -0.56919
C         -0.05638         9.97586        -0.56461
C          1.11935         9.34305        -0.37621
C          2.31890         9.90871         0.32857
C          3.64418         9.42660        -0.21355
C          4.90936        10.19821        -0.09148
C          6.12528         9.60577        -0.22294
C        -11.14216        -0.60053         0.96984
C         -9.93005        -1.42749         1.33883
C         -8.63522        -0.63256         1.21168
C         -7.34051        -1.44159         1.27308
C         -6.11185        -0.66049         0.79327
C         -4.84080        -1.43033         0.92651
C         -3.54083        -0.68047         0.85850
C         -2.17877        -1.42677         0.81432
C         -1.17815        -0.71907        -0.09779
C          0.08250        -1.43996        -0.54851
C          1.33921        -0.65882        -0.75522
C          2.64552        -1.38288        -1.12053
C          3.89309        -0.67086        -0.62771
C          5.18081        -1.37265        -0.86134
C          6.38904        -0.53339        -1.29349
C          7.63898        -1.29602        -0.82963
C          8.77126        -0.48648        -0.23508
C          9.38672        -1.06507         1.02394
C         10.59354        -0.30175         1.50382
C         -9.86187        -2.73720         0.56918
C         -8.65563        -3.39358         0.30684
C         -7.42125        -2.77004         0.54629
C         -6.16813        -3.47921         0.09694
C         -4.89582        -2.90428         0.71100
C         -3.60608        -3.64395         0.46876
C         -2.29741        -2.92650         0.43027
C         -1.20555        -3.57906        -0.45446
C          0.17445        -2.92438        -0.24089
C          1.28641        -3.57512        -1.10095
C          2.60197        -2.87092        -0.79239
C          3.89150        -3.59295        -0.90423
C          5.14297        -2.83153        -1.37228
C          6.44904        -3.69913        -1.06924
C          7.63597        -2.79250        -0.62601
C          8.64162        -3.35803         0.33038
C          9.52090        -2.57123         0.98727
C         -8.65868        -4.76432        -0.37597
C         -7.50151        -5.67996         0.01479
C         -6.25062        -4.97783         0.38680
C         -4.95785        -5.74853         0.32513
C         -3.72501        -5.02126        -0.12163
C         -2.49781        -5.76069        -0.55357
C         -1.14369        -5.11936        -0.21866
C          0.02856        -5.78532        -0.93984
C          1.35304        -5.07880        -0.89458
C          2.52820        -5.74709        -0.90333
C          3.88711        -5.09814        -1.18404
C          5.00776        -5.65290        -0.30769
C          6.21161        -4.93055        -0.14612
C          7.32944        -5.52656         0.44695
C          8.68615        -4.85995         0.48217
C         -7.51807        -7.02225        -0.21988
C         -6.33585        -7.90564        -0.02526
C         -5.00206        -7.23540         0.21226
C         -3.79269        -7.98447        -0.26794
C         -2.53441        -7.26336        -0.65787
C         -1.26336        -8.00277        -0.64909
C         -0.02624        -7.29191        -1.01525
C          1.28432        -8.05183        -1.00336
C          2.57585        -7.24753        -0.79644
C          3.50072        -7.65622         0.33338
C          4.76611        -6.85264         0.50206
C          6.00796        -7.59512         1.01384
C          7.36469        -7.01839         0.65669
C         -6.23255        -9.28408        -0.59530
C         -5.09217       -10.00703        -0.56221
C         -3.79479        -9.47345         0.05709
C         -2.49941       -10.12971        -0.36004
C         -1.28669        -9.42352        -0.49097
C         -0.02203       -10.10118        -0.35960
C          1.20015        -9.39412        -0.30585
C          2.34559        -9.95238         0.25884
C          3.45838        -9.10871         0.73686
C          4.72898        -9.73535         1.15335
C          5.89310        -9.05873         1.21945
O         -8.51202         0.47279         2.17907
O          0.42114        -0.88223        -1.85728
O          5.03034         5.43118         1.64476
O         -2.70129        -3.66898         1.62497
O          3.09007        -7.80180        -2.08716
O          9.50320         0.02496        -1.38168
O          0.03654         6.78173         2.10349
O         -3.50993        -7.73380        -1.67360
O         -5.56523         3.01028        -1.87333
O          8.21904        -2.19122        -1.82140
O         -3.37643        -5.11585        -1.53783
O          5.22927        -6.76656         1.89337
O         -3.68984         0.42391         1.82284
O          1.40916         4.15334         2.14683
O          3.63524         8.67475        -1.50412
O          5.28938         3.50840        -1.85083
O         -0.65605         2.73298         1.71906
O          2.90217         1.70775         1.50910
O         -4.92530        -2.37929         2.04883
O         -2.19809         7.95761         1.54187
O          4.67677        -1.16615         0.48838
O          1.94804         8.94189         1.42994
O         -7.69402         1.70447        -1.29605
O         -1.70644        -0.04165        -1.26864
O          2.89240        -8.00608         1.59125
O         -5.51919        -5.31311         1.59685
O          3.32301        -3.28697         0.39446
O          6.78851        -4.38276        -2.22618
O         -5.72238        -7.83763         1.31893
O         -0.24325        -6.41553        -2.20667
O          1.75113        -8.36100        -2.39298
O         -2.39564         5.51111        -1.25974
O          4.75878         3.11442         1.71545
H          4.22565         3.33249         2.50819
O          0.55657        -3.05488         1.13172
H          0.04435        -2.41097         1.68038
O          2.78252        -1.29479        -2.55621
H          2.05102        -1.82793        -2.95399
O         -1.57494        -1.39898         2.11808
H         -2.20384        -1.81304         2.74973
O          0.99193         0.17960         1.37512
H          1.49173         0.73779         2.02222
O         -0.86502        -5.44143         1.15373
H         -1.43449        -4.88917         1.74434
O         -8.51860        -4.54039        -1.80012
H         -9.25217        -3.95956        -2.09170
O          1.02792        -3.36984        -2.50172
H          0.04826        -3.38403        -2.64895
O          8.33428        -0.80612         2.02332
H          8.69000        -1.03862         2.90663
O         11.06604         1.91074        -0.90133
H         10.98595         1.10701        -1.46984
O          6.36323        -0.43750        -2.72788
H          6.13298        -1.33639        -3.08243
O          0.25173         1.97098        -1.72474
H          0.03897         1.19239        -2.28979
O         -3.85288        -9.68979         1.48817
H         -4.66277        -9.22875         1.82160
O          9.39130        -5.24645         1.66810
H          8.92770        -4.86214         2.44039
O        -10.07735        -1.82110         2.73247
H         -9.17177        -2.05297         3.05351
O         -1.83649         5.03457         2.34775
H         -1.21345         4.50825         2.89592
O          5.85254         5.93556        -1.94580
H          5.41967         5.21871        -2.46665
O         -7.22290        -1.74916         2.69429
H         -7.17122        -0.88668         3.16363
O          2.75954         6.50630         2.26970
H          2.46619         5.84065         2.92922
O          2.12406         6.47201        -1.30165
H          2.38056         7.09997        -2.01659
O          5.06249        -2.74959        -2.80009
H          5.62326        -3.51956        -3.12087
O         -6.43206         7.86002        -2.36673
H         -6.08068         6.99713        -2.70436
O         -3.04689         3.23478        -2.02817
H         -3.79355         3.46339        -2.62860
O         -6.01577        -3.30968        -1.33813
H         -6.82350        -3.68678        -1.77229
O         -1.54292        -3.29957        -1.82225
H         -2.34110        -3.82966        -2.08249
O         -4.77760         0.54904        -1.65296
H         -5.35964         1.05819        -2.26396
O          3.40343         1.19359        -2.07960
H          4.01399         0.76260        -2.71792
O          7.84638        -7.65473        -0.54575
H          7.68711        -7.05694        -1.30718
O          4.16414        -5.29837        -2.57744
H          3.86894        -6.20290        -2.83313
O         -1.45127         8.54458        -1.88201
H         -1.44732         9.24794        -2.56456
O         -4.84801         5.61864        -2.40713
H         -3.92543         5.83813        -2.67676
O          5.04552         7.89504         1.68557
H          4.41377         7.32358         2.19175
H         11.25080        -0.80761         2.23079
H         11.63767         1.52017         1.68306
H         10.53179         3.78164         0.95797
H          9.57133         5.81796         0.27715
H          8.40601         8.06440        -0.48644
H          7.03286        10.22791        -0.26377
H          4.83280        11.29384        -0.01182
H          2.29682        10.97017         0.66254
H         -0.08314        11.06207        -0.74592
H         -2.56260        11.09235        -0.37906
H         -5.12436        11.05839         0.04910
H         -7.18530         9.81863        -0.47028
H         -8.32657         7.58089        -0.24350
H         -9.45708         5.53816         0.25343
H        -10.84003         3.38642         0.10441
H        -12.08258         1.21151         0.39900
H        -12.11291        -1.11095         1.06674
H        -10.80795        -3.27855         0.41229
H         -9.63942        -5.27983        -0.18593
H         -8.43377        -7.48670        -0.61936
H         -7.13952        -9.71838        -1.04472
H         -5.09415       -11.02895        -0.97194
H         -2.44712       -11.22485        -0.25680
H         -0.03095       -11.15618        -0.04602
H          2.30836       -10.99322         0.61727
H          4.72560       -10.82519         1.30626
H          6.82647        -9.60148         1.43080
H          8.09209        -7.25426         1.47914
H          9.27301        -5.28495        -0.38276
H         10.25934        -3.04301         1.65716
