         668
 CSIRO Nanostructure Databank - Neutral Graphene Oxide Data Set
C          6.24130        31.53564        -1.35811
C          6.27939        32.85654        -1.57976
C          8.44457        27.33387        -0.11514
C          8.40231        28.74429        -0.12557
C          7.22732        29.42444        -0.39915
C          8.34875        31.68795         0.12746
C          7.15725        30.88742        -0.39199
C          8.48932        33.06024        -0.38662
C          7.20971        33.76878        -0.80786
C          8.60094        35.89160        -1.06183
C          7.48091        35.03659        -1.62567
C          8.44885        37.27760        -1.23226
C         10.78854        23.07488         0.48893
C         10.80313        24.46180         0.52758
C          9.64334        25.21409         0.16334
C         10.85112        27.34084         0.48459
C          9.63158        26.61173         0.16118
C         10.86679        28.74961         0.47751
C          9.69159        29.54262        -0.05227
C         10.86638        31.64385         0.63363
C          9.54021        30.88909         0.69692
C         10.82199        33.17386         0.52722
C          9.68597        33.75403        -0.32883
C         11.09177        35.81251        -0.64666
C          9.74621        35.16868        -0.59556
C         11.15893        37.26331        -0.46463
C          9.33125        38.28886        -0.72389
C         10.85911        40.26716        -0.97358
C          9.60330        39.55840        -1.21174
C         10.93939        41.64581        -1.17263
C         13.27331        18.75783         0.50760
C         13.25403        20.13186         0.72374
C         11.89123        20.79489         0.76859
C         13.19757        23.02645         1.31982
C         11.90396        22.29014         1.01560
C         13.22005        24.48741         1.11094
C         12.02683        25.17811         0.86105
C         13.22695        27.32392         1.10094
C         12.02879        26.61282         0.81169
C         13.21734        28.74146         1.14327
C         12.03059        29.46091         0.83724
C         13.42158        31.55488         0.84789
C         12.02848        30.93241         0.79214
C         13.29532        33.08863         1.05149
C         12.24221        33.57756        -0.00456
C         13.66735        35.74037        -0.26191
C         12.39005        35.01754        -0.48332
C         13.88045        37.00885        -0.73220
C         12.06611        38.12835        -1.00611
C         13.36794        40.21404        -0.63951
C         12.11201        39.55706        -0.81746
C         13.37521        41.62211        -0.64573
C         12.17164        42.35033        -1.01036
C         13.35527        44.57001        -0.72721
C         12.19373        43.73500        -1.15184
C         13.61925        45.73596        -1.65113
C         15.81312        14.53929        -0.12712
C         15.75525        15.95471        -0.02504
C         14.53326        16.64045         0.16438
C         15.70613        18.80034         0.28134
C         14.49186        18.04273         0.33009
C         15.68767        20.20809         0.55307
C         14.47250        20.86424         0.82094
C         15.72750        23.07007         1.02099
C         14.51386        22.25864         1.44023
C         15.70866        24.50728         1.15362
C         14.46129        25.19856         1.22206
C         15.67509        27.32131         1.55569
C         14.45586        26.61599         1.29335
C         15.65477        28.74101         1.76040
C         14.42680        29.41819         1.56116
C         15.49933        31.37916         2.41005
C         14.36431        30.80223         1.79587
C         15.58603        33.48430         1.94521
C         14.63671        33.79681         1.02810
C         15.70430        36.00965         1.21780
C         14.91501        35.06982         0.27641
C         15.86407        37.39960         0.65318
C         14.60313        38.03773         0.11778
C         15.80844        40.21623         0.17486
C         14.72199        39.43968        -0.55271
C         15.67721        41.69511         0.42726
C         14.56678        42.38938        -0.32637
C         15.82424        44.56493        -0.12080
C         14.59064        43.75105        -0.43558
C         16.05054        45.60637        -1.20441
C         14.87618        46.30289        -1.77712
C         16.34078        48.27574        -2.33565
C         15.09532        47.58426        -2.34387
C         16.27686        49.67101        -2.69506
C         18.38314        10.33985        -0.63843
C         18.32986        11.74430        -0.48875
C         17.09856        12.43657        -0.37243
C         18.26964        14.60084        -0.31726
C         17.03866        13.84757        -0.27094
C         18.23270        16.02694        -0.28382
C         16.97171        16.72184        -0.13292
C         18.12161        18.93765        -0.25054
C         16.91786        18.12412        -0.01953
C         18.12597        20.35127         0.16334
C         16.93510        20.96338         0.54090
C         18.14103        23.15833         0.48240
C         16.90446        22.39430         0.75445
C         18.15756        24.65337         0.69921
C         16.91342        25.26919         1.18842
C         18.15294        27.32314         2.03746
C         16.90274        26.63350         1.53496
C         18.12828        28.83571         2.00246
C         16.87336        29.48665         1.99382
C         18.03213        31.71409         2.72597
C         16.79781        30.87611         2.32362
C         18.09720        33.20806         2.24955
C         16.95439        33.98890         1.93759
C         18.16988        36.09661         1.87876
C         17.00829        35.35853         1.62129
C         18.06829        37.55468         1.71772
C         16.97372        38.13781         0.93584
C         18.00239        40.38354         1.25633
C         16.90140        39.59115         0.73161
C         18.15323        41.75183         0.90087
C         17.00847        42.40677         0.37326
C         18.32093        44.43656         0.23525
C         17.08138        43.75824         0.09637
C         18.33619        45.86507        -0.12859
C         17.37231        46.30330        -1.19198
C         18.80185        48.27142        -1.63202
C         17.51620        47.64937        -1.78645
C         19.14015        49.39275        -2.44029
C         17.40036        50.39484        -3.10762
C         19.02511        52.30203        -3.12119
C         17.69603        51.76543        -3.07417
C         19.13181        53.68154        -3.40046
C         20.94073         6.15798        -1.23258
C         20.88812         7.56552        -0.99149
C         19.66150         8.24545        -0.90718
C         20.85555        10.37426        -0.62257
C         19.61496         9.64673        -0.73140
C         20.81258        11.81637        -0.54245
C         19.56495        12.48906        -0.47965
C         20.73098        14.66134        -0.46150
C         19.51444        13.91874        -0.41166
C         20.69589        16.07756        -0.39482
C         19.44826        16.74622        -0.32640
C         20.68147        18.94813        -0.09329
C         19.43923        18.21273        -0.39858
C         20.63830        20.30541         0.14507
C         19.39218        21.05841         0.22454
C         20.67064        23.10048         0.94284
C         19.41115        22.42200         0.45589
C         20.69750        24.61204         0.95623
C         19.46303        25.45923         0.70898
C         20.60828        27.38215         1.80625
C         19.44489        26.74184         1.52236
C         20.60464        28.79071         2.32490
C         19.33421        29.58608         2.22914
C         20.62862        31.72623         2.78774
C         19.33892        30.96855         2.42363
C         20.62043        33.20064         2.38162
C         19.33792        33.91178         2.26394
C         20.63033        36.03800         2.30066
C         19.34942        35.34873         2.19280
C         20.73077        37.31017         2.80079
C         18.84549        38.42339         2.45240
C         20.04020        40.63624         2.55287
C         18.93677        39.83463         2.13785
C         20.43168        41.83044         1.92277
C         19.37408        42.45084         1.16428
C         20.69004        44.56287         1.06409
C         19.46229        43.81744         0.77794
C         20.76649        45.90212         0.67351
C         19.61393        46.61189         0.08465
C         21.07221        48.49268        -0.66180
C         19.82438        47.81512        -0.74435
C         21.25023        49.75250        -1.34347
C         20.20138        50.27947        -2.16258
C         21.44598        52.36152        -2.55394
C         20.22834        51.61436        -2.68818
C         21.56636        53.68492        -3.10363
C         20.35121        54.38395        -3.49275
C         21.32736        56.58355        -4.17684
C         20.25372        55.79381        -3.73616
C         21.57533        57.95783        -4.06111
C         23.45773         3.40553        -1.92011
C         22.10665         4.01293        -1.69247
C         23.37961         6.20105        -1.21762
C         22.14042         5.49101        -1.37000
C         23.35838         7.56954        -0.90005
C         22.12092         8.28630        -0.82961
C         23.34398        10.44313        -0.25868
C         22.08232         9.69003        -0.62228
C         23.29492        11.89713        -0.65319
C         22.02722        12.55725        -0.63083
C         23.16632        14.73503        -0.80789
C         21.98289        13.99209        -0.64058
C         23.15097        16.14788        -0.69090
C         21.92233        16.82348        -0.45139
C         23.15390        18.92665        -0.28092
C         21.92873        18.22939        -0.23129
C         23.20207        20.32475         0.14801
C         21.90010        21.02814         0.39345
C         23.18780        23.17035         0.61166
C         21.88553        22.52256         0.21231
C         23.16805        24.52858         0.98794
C         21.88951        25.23311         1.19056
C         23.17125        27.35640         1.76483
C         21.88715        26.55732         1.93606
C         23.19691        28.82561         2.05183
C         21.91754        29.54090         2.41539
C         23.09777        31.72232         2.19767
C         21.91382        31.02610         2.35936
C         23.10346        33.18788         2.18917
C         21.81642        33.85854         2.15625
C         23.13679        36.06819         1.88255
C         21.80993        35.30651         1.68749
C         23.13831        37.54041         2.22158
C         21.88109        38.17832         2.65574
C         23.03947        40.42053         2.91585
C         21.87876        39.50623         2.98540
C         22.97103        41.83988         2.47987
C         21.74949        42.50956         2.06466
C         22.99606        44.72402         2.13921
C         21.80996        43.87952         1.68336
C         23.18390        46.03848         1.38864
C         21.91902        46.78943         1.05619
C         23.35910        48.65770         0.21617
C         22.12128        47.98043         0.14947
C         23.53432        49.90354        -0.47517
C         22.45273        50.47141        -1.23750
C         23.76832        52.48913        -1.71264
C         22.56224        51.75883        -1.87242
C         23.88081        53.77623        -2.23191
C         22.84061        54.33569        -3.02320
C         24.14910        56.46584        -3.37562
C         23.13509        55.55239        -3.71622
C         24.09942        57.85060        -3.69262
C         22.88619        58.53996        -4.09070
C         24.15273        60.65011        -4.20414
C         22.95830        59.94015        -4.31987
C         24.60052         4.11296        -1.87766
C         25.82730         6.20905        -1.56674
C         24.63741         5.52855        -1.52424
C         25.94147         7.58794        -1.08270
C         24.62507         8.29612        -0.68023
C         25.78132        10.48446        -0.89160
C         24.61816         9.76673        -0.70118
C         25.75139        11.94218        -0.89770
C         24.47774        12.59925        -0.86409
C         25.67402        14.82315        -1.03452
C         24.40998        14.04196        -1.29053
C         25.63147        16.20811        -0.98485
C         24.36407        16.89896        -0.84734
C         25.52145        19.12489        -1.12668
C         24.34146        18.29157        -0.69780
C         25.60232        20.48440        -0.45601
C         24.44368        21.10214        -0.01620
C         25.61974        23.24146         0.35249
C         24.41466        22.50283         0.37244
C         25.57075        24.63680         0.48275
C         24.37054        25.26720         0.88009
C         25.50448        27.56722         0.75105
C         24.28114        26.75000         0.96003
C         25.49336        29.00661         1.13430
C         24.36479        29.62698         1.59284
C         25.56492        31.74651         1.92674
C         24.36215        31.05081         1.89457
C         25.55966        33.11303         2.57025
C         24.31324        33.88767         2.19667
C         25.57365        36.03451         2.37261
C         24.39026        35.32633         2.16395
C         25.58471        37.48550         2.51349
C         24.36976        38.20468         2.64979
C         25.60205        40.41627         2.79874
C         24.34510        39.64312         2.98438
C         25.50952        41.84617         2.42220
C         24.25118        42.53083         2.36767
C         25.51663        44.64929         2.21990
C         24.29675        43.94693         2.19767
C         25.45063        46.16143         2.39686
C         24.36661        46.72422         1.46840
C         25.71446        48.72938         0.89604
C         24.48474        48.05706         0.88321
C         25.83430        50.03647         0.35405
C         24.76120        50.58351        -0.37194
C         25.90925        52.76903        -0.42866
C         25.01708        51.81759        -1.19547
C         25.94585        54.20098        -0.82534
C         25.14104        54.53984        -2.04331
C         26.36430        56.79608        -2.12427
C         25.29385        55.90506        -2.63098
C         26.38036        58.10622        -2.68038
C         25.28129        58.64320        -3.38996
C         25.29960        60.02266        -3.72787
C         27.06768         8.43604        -1.44547
C         28.20775        10.60137        -1.40838
C         27.03827         9.81888        -1.24176
C         28.21967        12.00211        -1.15821
C         26.94159        12.68244        -0.98929
C         28.12734        14.85669        -0.89216
C         26.92951        14.12624        -0.97161
C         28.12771        16.27745        -0.99739
C         26.85858        16.99120        -1.01757
C         28.04563        19.17134        -1.43279
C         26.82155        18.36798        -1.08446
C         28.04980        20.55436        -0.80129
C         26.86371        21.16469        -0.40485
C         28.10358        23.35396        -0.16233
C         26.93731        22.50847         0.29578
C         28.05854        24.75137        -0.10351
C         26.72058        25.46731        -0.05213
C         27.96770        27.66995         0.20423
C         26.82300        26.78591         0.73215
C         27.98304        29.00484         0.99287
C         26.70076        29.82932         0.73782
C         28.00516        31.80459         1.41792
C         26.78939        31.14665         1.47848
C         28.17903        33.15753         1.99422
C         26.90044        33.85968         2.42062
C         28.22625        36.07203         2.38096
C         26.90113        35.35050         2.27263
C         28.06356        37.46373         3.04647
C         26.80987        38.15723         2.61775
C         28.05084        40.30846         2.06979
C         26.85033        39.62942         2.63687
C         28.00122        41.80187         2.02159
C         26.72720        42.53791         2.26124
C         28.03188        44.65469         2.22498
C         26.75161        43.95112         2.23289
C         28.06693        46.04336         2.23695
C         26.82960        46.92397         2.34564
C         28.18234        48.82272         1.48196
C         26.96613        47.95465         1.20687
C         28.21537        50.18752         1.12485
C         27.06275        50.81056         0.53569
C         28.28628        52.96371         0.35620
C         27.09021        52.16482         0.21698
C         28.33720        54.29106        -0.05015
C         27.09758        55.10138        -0.36325
C         27.30831        56.31964        -1.23689
C         29.40739        12.71940        -1.06925
C         30.63470        14.90256        -0.94399
C         29.40936        14.13095        -0.56394
C         30.60922        16.28948        -1.07287
C         29.34023        17.00203        -1.06854
C         30.52482        19.14479        -1.26864
C         29.34216        18.42924        -1.21101
C         30.48493        20.64355        -1.48087
C         29.27728        21.29136        -0.81882
C         30.48568        23.47532        -0.98729
C         29.29071        22.66323        -0.54662
C         30.51665        24.86114        -0.38566
C         29.26723        25.52575        -0.16124
C         30.48253        27.63156         0.22094
C         29.28847        26.92346         0.16655
C         30.50693        29.04890         0.74817
C         29.21300        29.80589         0.69283
C         30.29998        32.01180         0.29783
C         29.18157        31.16268         0.84927
C         30.45246        33.37247         0.97150
C         29.41464        33.93231         1.74961
C         30.77064        36.04725         1.97655
C         29.56658        35.25239         2.51336
C         31.05484        37.31076         2.40036
C         29.24159        38.39082         2.94124
C         30.58997        40.33741         2.12454
C         29.33206        39.61710         2.34984
C         30.51707        41.77807         2.08728
C         29.29133        42.50683         2.14133
C         30.52509        44.61894         2.31987
C         29.27884        43.91240         2.21722
C         30.53505        46.04973         2.30269
C         29.31928        46.74730         2.18634
C         30.59227        48.87987         2.03945
C         29.34484        48.17009         1.95111
C         30.60310        50.38893         2.00658
C         29.40165        50.98496         1.31143
C         29.44082        52.30071         0.91314
C         31.80985        17.04420        -1.19778
C         33.00124        19.18915        -1.25917
C         31.79692        18.45232        -1.24189
C         33.01570        20.60950        -1.15165
C         31.78264        21.32987        -1.13097
C         32.99560        23.38956        -0.69458
C         31.78415        22.70804        -0.87364
C         33.03029        24.78841        -0.14155
C         31.71572        25.53401        -0.22392
C         32.95565        27.66576         0.04783
C         31.74407        26.95383         0.03299
C         32.95664        29.12380         0.22249
C         31.68743        29.85743         0.31455
C         32.78955        31.99623        -0.05433
C         31.64251        31.25940         0.26222
C         32.65516        33.47853        -0.28689
C         31.62739        34.05960         0.66316
C         32.68678        36.28337         0.29817
C         31.93434        35.37694         1.28141
C         32.89599        37.67436         0.88183
C         31.98139        38.22650         1.74574
C         32.93920        40.49816         1.45249
C         31.82787        39.69271         1.86588
C         32.94407        41.87144         1.64159
C         31.73979        42.52298         2.05065
C         33.05949        44.59487         2.58733
C         31.74386        43.91274         2.28881
C         32.99729        46.07753         2.38699
C         31.80084        46.75807         2.28491
C         31.77299        48.19464         2.19436
C         34.23490        21.32401        -1.06878
C         35.45895        23.48505        -0.91437
C         34.24359        22.71916        -0.87193
C         35.45692        24.88660        -0.91861
C         34.13315        25.62079        -0.80687
C         35.35934        27.77497        -0.83218
C         34.29477        26.97682        -0.11092
C         35.33076        29.17538        -0.82176
C         34.17971        29.89991        -0.22006
C         35.24213        32.12305        -0.61698
C         33.96354        31.32050        -0.70084
C         35.23352        33.47487        -0.44878
C         33.98309        34.22714        -0.26181
C         35.26930        36.36217         0.01898
C         33.98281        35.57910        -0.08065
C         35.13821        37.84331        -0.28782
C         33.93406        38.51433         0.27686
C         35.03010        40.75015        -0.01331
C         34.19485        39.85624         0.92551
C         35.18495        42.11605         0.59478
C         34.13546        42.68130         1.32781
C         34.18239        44.00396         1.78969
C         36.59795        25.65707        -1.17935
C         37.65094        27.84744        -1.69368
C         36.54684        27.09247        -1.25300
C         37.64035        29.27471        -1.67425
C         36.45116        29.93299        -1.19654
C         37.75699        32.11798        -1.07299
C         36.52988        31.32480        -0.60341
C         37.80571        33.60114        -0.90852
C         36.47162        34.26551        -0.75033
C         37.64043        36.55413        -1.01347
C         36.40710        35.74931        -0.76416
C         37.57213        37.96684        -0.85689
C         36.38750        38.65114        -0.46200
C         36.32750        40.02981        -0.32678
C         38.74418        30.05446        -2.07358
C         39.62953        32.38621        -2.76941
C         38.49770        31.52260        -2.26223
C         39.71206        33.71196        -2.56311
C         38.99953        34.43133        -1.43211
C         38.72574        35.91181        -1.58506
O         25.50824         7.72864         0.32866
O          7.14169        31.52204         0.96409
O         10.15912        37.82702         0.34021
O         23.24968        37.07458         0.80705
O         19.62978        37.87945         3.47831
O         36.09400        35.02094        -1.98607
O         21.27740        28.98829         3.62916
O         22.65563        20.53183         1.52658
O         18.44993        49.57645        -3.62168
O         22.35343        55.84888        -4.82605
O         33.99345        29.63973         1.18573
O         27.80153        33.33072         3.43132
O         20.77797        40.09157         3.60679
O         17.95080        24.09971        -0.66250
O         23.70804        40.12430         4.22373
O         29.94193        32.24872        -1.05492
O         24.92830        46.33832         3.71549
O         38.36783        32.69866         0.11736
O         24.55034        27.34459        -0.37275
O         17.08047        45.22692        -2.16631
O         27.90403        40.95652         0.78175
O         15.29800        32.62576         3.01031
O         13.09964        37.54323        -1.77100
O         25.90416        54.70418        -3.27664
O         26.51148        40.20728         3.96806
O         27.63037        35.88925         1.08537
O         12.26472        22.64264         2.39935
O         18.72600        18.72910        -1.58382
O         25.12634        53.77113         0.31483
O         11.82615        35.25626        -1.81563
O         18.44553        46.76805         1.00715
O         23.64664        27.85189         3.06338
O         34.06248        38.28683        -1.18632
O         30.38691        37.83464         3.51760
O         31.86543        36.47442        -0.86540
H         32.39004        36.99285        -1.51601
O         33.30719        24.60079         1.27368
H         33.87848        25.34569         1.58659
O         12.36596        32.81779        -1.24044
H         12.02377        33.40294        -1.95920
O         26.96889        47.67055         3.56754
H         26.20623        47.35069         4.13473
O         30.73875        28.86954         2.22807
H         31.56010        28.33978         2.33345
O         37.46092        31.62768        -3.30937
H         37.79597        31.17751        -4.11325
O         36.70383        31.00601         0.81650
H         37.32149        31.68181         1.18742
O         17.95777        31.80774         4.17810
H         18.87667        31.97758         4.51135
O         34.84206        26.78285         1.23767
H         34.89675        27.67878         1.64583
O         28.01165        28.73657         2.42642
H         28.96378        28.70631         2.69993
O         29.79548        34.96379         3.90771
H         29.38325        35.68307         4.44102
O         33.34323        44.35426         4.02353
H         32.58371        44.70577         4.53517
O         21.58486        35.21323         0.25605
H         22.00357        36.00791        -0.15028
O         11.23793        20.58665        -0.49252
H         11.36885        19.65468        -0.76266
O         32.92149        35.10824         2.35162
H         32.44330        34.66813         3.08912
O          9.28090        30.61513         2.08428
H          8.31900        30.77535         2.23511
O         23.38145        10.41237         1.21554
H         24.27428        10.70466         1.49734
O         15.23907        41.82202         1.83542
H         15.81195        41.23913         2.37891
O         29.44029        14.04032         0.92915
H         29.39962        14.95857         1.27313
O         35.66771        36.28698         1.42729
H         34.89964        35.95827         1.94970
O         27.08087        26.35344         2.07894
H         27.31853        27.15511         2.61340
O         13.72170        38.25311         1.25919
H         13.82774        37.48033         1.87315
O         26.38138        25.73299        -1.44651
H         25.51475        26.21769        -1.43732
O         25.78359        51.39625        -2.36532
H         25.20166        50.84716        -2.93118
O         20.75022        22.72236         2.34874
H         21.46480        23.24536         2.77227
O         27.92631        37.11726         4.46992
H         27.64060        37.92611         4.94928
O         30.29652        20.88427        -2.92464
H         29.46746        20.39443        -3.18051
O         24.28092        13.99206        -2.76928
H         24.15802        14.91424        -3.08031
O         12.78473        33.28101         2.39158
H         13.52544        33.06237         3.01009
O         15.77042        34.81552        -0.86440
H         15.34158        34.13712        -1.42642
O         26.71800        55.67658         0.93088
H         26.08251        55.03924         1.33888
O         19.65790        25.95068        -0.65698
H         19.15586        25.33746        -1.24881
O         14.88635        36.13594         2.43366
H         15.45445        36.50832         3.14135
O         30.30105        23.68838        -2.42871
H         30.25776        22.78777        -2.84435
O         27.97123        19.41202        -2.89365
H         27.03379        19.68669        -3.07439
O         33.69727        25.93319        -2.15026
H         33.49681        25.09440        -2.61615
O         26.53555        30.21840        -0.64052
H         26.84935        29.47965        -1.21808
O         14.73180        22.01835         2.86471
H         13.83924        21.99817         3.28435
O         27.71556        27.97866        -1.18951
H         27.43775        27.13646        -1.63974
O          7.83616        34.67056        -2.97224
H          8.73319        34.27677        -2.95709
O         10.45540        33.75129         1.79044
H         10.99097        33.33447         2.50375
O         12.94344        45.18309         0.55567
H         13.77168        45.52472         0.97971
O         25.38985        32.88219         4.00257
H         26.28033        32.65493         4.35988
O         27.24790        47.19174        -0.00815
H         27.37911        47.82658        -0.74357
O         32.13566        33.57124        -1.64973
H         31.21229        33.13907        -1.62506
O         21.50051        47.35021         2.35339
H         21.70805        46.65403         3.03446
O          6.53810        34.17685         0.40912
H          6.47325        33.37042         0.97490
O         33.63679        31.21432        -2.12038
H         33.19608        32.06431        -2.37638
O         20.66367        31.70597         4.26486
H         20.87433        30.77343         4.51683
O         18.15897        26.98403         3.47720
H         18.98467        27.34549         3.86767
O         10.00904        29.90273        -1.43180
H         10.18700        29.07442        -1.92495
O         21.72133        22.75951        -1.20873
H         21.67142        23.72834        -1.35417
O         15.19398        39.28398        -1.90901
H         14.52638        38.74884        -2.39698
O         21.41493         3.29719        -0.65065
H         21.91866         3.41462         0.18079
O         40.02852        34.46937        -0.38826
H         39.93766        33.63530         0.13132
O         25.26878        19.44298        -2.56223
H         25.00389        18.60677        -3.00267
O         22.63397        45.11421         3.50494
H         23.46616        45.59028         3.85075
O         35.05369        39.58121         2.06818
H         34.51707        39.14793         2.76437
O         21.84063        26.11455         3.32464
H         22.29020        26.82082         3.85326
O         15.58463        45.30371         1.11897
H         15.61687        44.65912         1.85872
O         30.63472        50.87437         3.36696
H         29.83233        50.54543         3.82330
O         27.24870        22.18690         1.70308
H         26.48449        21.69138         2.06780
O         34.31545        40.96271        -1.26262
H         34.16850        40.07314        -1.66873
O         14.12964        31.27358        -0.38986
H         13.53768        31.52374        -1.13896
H          5.55097        30.88716        -1.91946
H          5.59582        33.31627        -2.30901
H          7.50998        26.77569        -0.27891
H          6.33077        28.86402        -0.70823
H          6.53611        35.62836        -1.69012
H          7.57457        37.61278        -1.81318
H          9.92280        22.54424         0.06844
H          8.72080        24.66903        -0.08668
H          8.89480        40.01934        -1.91657
H         10.03204        42.21981        -1.40996
H         12.32336        18.20054         0.47953
H         11.27561        20.30465         1.58146
H         11.26399        44.25812        -1.42410
H         12.74721        46.25442        -2.07896
H         14.87729        13.96300        -0.07199
H         13.59505        16.06700         0.20527
H         14.22015        48.12308        -2.73802
H         15.30961        50.18346        -2.58835
H         17.44419         9.76770        -0.68381
H         16.16174        11.85926        -0.36371
H         16.86747        52.48329        -2.98307
H         18.20561        54.23165        -3.62540
H         19.99707         5.60312        -1.34021
H         18.72211         7.67990        -0.99656
H         19.28278        56.27300        -3.53770
H         20.72864        58.63608        -3.87536
H         23.48513         2.32896        -2.14605
H         21.49345         3.86348        -2.62450
H         24.17315        61.72321        -4.43944
H         22.04182        60.46894        -4.61805
H         25.56425         3.61907        -2.07590
H         26.73208         5.70675        -1.94188
H         27.21614        58.77744        -2.42972
H         26.21714        60.60199        -3.55314
H         27.95976         7.97210        -1.89297
H         29.15857        10.09190        -1.62676
H         29.27928        54.84479         0.08471
H         28.13248        56.98643        -0.93824
H         30.36918        12.20782        -1.22404
H         31.60337        14.37985        -0.93766
H         31.54455        50.75418         1.52243
H         30.36463        52.88206         1.05178
H         32.77419        16.51470        -1.20427
H         33.95870        18.64732        -1.27374
H         33.94104        46.64408         2.40920
H         32.72542        48.74388         2.23829
H         35.18609        20.78028        -1.16405
H         36.41146        22.94903        -1.04782
H         36.06942        42.72531         0.35112
H         35.04893        44.63491         1.53977
H         37.55764        25.15397        -1.37490
H         38.56113        27.32701        -2.02606
H         38.47573        38.56058        -1.06303
H         37.23217        40.62635        -0.52438
H         39.67129        29.57891        -2.42495
H         40.29415        31.92074        -3.51635
H         40.50969        34.27973        -3.06841
H         39.59777        36.51755        -1.87926
