         272
 CSIRO Nanostructure Databank - Neutral Graphene Oxide Data Set
C        -11.19504         0.62313        -0.11613
C         -9.90042         1.35615        -0.03571
C         -8.67886         0.62210        -0.47436
C         -7.46264         1.40909        -0.89178
C         -6.15102         0.61262        -1.09825
C         -4.91421         1.40519        -0.57075
C         -3.84206         0.69807         0.18758
C         -2.56091         1.41764         0.54069
C         -1.28646         0.64906         0.54549
C          0.03303         1.35525         0.70285
C          1.23369         0.72895         0.06474
C          2.46639         1.57086         0.04187
C          3.75607         0.93026        -0.37968
C          5.01533         1.38294         0.36315
C          6.25845         0.95441        -0.44476
C          7.53579         1.53490         0.20023
C          8.81416         0.87464        -0.32565
C         10.09458         1.62786         0.18330
C         11.28611         0.81562        -0.30601
C         -9.84806         2.84406         0.04088
C         -8.71114         3.55788        -0.14238
C         -7.46703         2.89302        -0.65618
C         -6.18191         3.64335        -0.48892
C         -4.89948         2.89150        -0.38173
C         -3.73738         3.54475         0.30629
C         -2.58634         2.88756         0.63367
C         -1.37049         3.57074         1.31040
C         -0.02084         2.79355         1.16547
C          1.28310         3.59577         1.20815
C          2.53652         2.87724         0.82125
C          3.78943         3.67203         0.55947
C          5.07565         2.90793         0.67839
C          6.36949         3.68132         0.71530
C          7.52980         3.03804        -0.01743
C          8.84934         3.75394        -0.15597
C         10.01180         3.07203        -0.30492
C         -8.64923         5.07077         0.07592
C         -7.50463         5.71069        -0.74808
C         -6.20312         4.99653        -0.43709
C         -4.92192         5.77559        -0.30487
C         -3.82444         5.01532         0.43825
C         -2.54095         5.74774         0.66157
C         -1.25375         4.97786         0.71417
C          0.03807         5.73504         0.64491
C          1.20476         5.11567         1.41413
C          2.53320         5.87355         1.16451
C          3.80688         5.14563         0.78396
C          5.10898         5.90440         0.93628
C          6.49063         5.22663         0.75642
C          7.24216         5.73027        -0.48906
C          8.16137         4.71744        -1.12025
C         -7.41038         7.21968        -0.63150
C         -6.29900         7.89877        -0.25265
C         -5.16942         7.15678         0.45963
C         -3.80360         7.94362         0.45689
C         -2.53777         7.16550         0.18650
C         -1.24001         7.88953         0.02435
C          0.03515         7.21192         0.37377
C          1.19642         7.93066         0.32201
C          2.49221         7.30556         0.70592
C          3.73668         7.86735         0.07231
C          5.06652         7.35137         0.54720
C          6.38167         7.99549         0.07235
C          7.14610         7.02804        -0.83864
C         -6.20175         9.34981        -0.38878
C         -5.05649        10.05499        -0.23800
C         -3.76772         9.41709         0.11506
C         -2.48550        10.03642        -0.22774
C         -1.26133         9.37657        -0.08140
C         -0.02385        10.03902        -0.20606
C          1.21151         9.34014        -0.09527
C          2.41331         9.98300        -0.39488
C          3.68074         9.26522        -0.50584
C          4.97353         9.96508        -0.70154
C          6.16440         9.36919        -0.52027
C        -11.28660        -0.68409        -0.43595
C        -10.11805        -1.50385        -0.86839
C         -8.80343        -0.80420        -0.95498
C         -7.56103        -1.62500        -0.74707
C         -6.26404        -0.87463        -0.62268
C         -5.15468        -1.53469         0.14027
C         -3.86276        -0.77861         0.31064
C         -2.54942        -1.54790         0.46318
C         -1.34360        -0.71275        -0.12220
C          0.00531        -1.45179         0.05516
C          1.21752        -0.58133        -0.34371
C          2.45097        -1.29993        -0.82643
C          3.74446        -0.47402        -1.07346
C          5.06236        -1.29597        -0.88693
C          6.33104        -0.56788        -0.57637
C          7.48774        -1.31037         0.03462
C          8.80043        -0.57595         0.13478
C         10.08807        -1.33497         0.07604
C         11.27352        -0.53397        -0.34512
C        -10.13166        -2.99731        -0.72669
C         -9.02195        -3.72495        -0.45146
C         -7.75864        -2.99390        -0.13587
C         -6.53260        -3.74070         0.28106
C         -5.19164        -3.01165         0.34539
C         -3.91325        -3.67290        -0.11983
C         -2.63994        -2.89067        -0.25658
C         -1.34480        -3.60934        -0.62280
C         -0.03106        -2.79236        -0.74131
C          1.21242        -3.66032        -0.36766
C          2.47765        -2.82285        -0.72070
C          3.78302        -3.52175        -0.44871
C          5.06593        -2.82328        -0.79039
C          6.35715        -3.58049        -0.58401
C          7.52722        -2.80169        -0.03119
C          8.83828        -3.49308         0.14281
C         10.01824        -2.82238         0.09300
C         -9.06102        -5.23533        -0.14989
C         -7.69934        -5.96191        -0.37936
C         -6.55014        -5.26035         0.40771
C         -5.17307        -5.89658         0.09498
C         -3.86769        -5.16465        -0.06230
C         -2.58909        -5.90196        -0.43893
C         -1.32629        -5.10887        -0.71849
C         -0.01358        -5.87276        -0.84770
C          1.26475        -5.03240        -1.10270
C          2.54532        -5.80286        -0.66788
C          3.76933        -5.00383        -0.27025
C          5.04963        -5.80386        -0.28937
C          6.36353        -5.09031        -0.36453
C          7.65617        -5.79993         0.07555
C          8.71414        -4.88103         0.73528
C         -7.67799        -7.42853         0.09032
C         -6.48319        -8.09165         0.13311
C         -5.37889        -7.29361        -0.48488
C         -3.47160        -8.12307         0.82934
C         -2.47715        -7.32914        -0.01568
C         -1.12832        -7.96791         0.24862
C          0.03271        -7.33973        -0.51787
C          1.34198        -8.17546        -0.43547
C          2.59117        -7.28123        -0.33159
C          3.75397        -7.78484         0.45618
C          4.95878        -7.11324         0.40901
C          6.14461        -7.61767         1.07780
C          7.36372        -6.98782         0.97093
C         -6.22686        -9.49311         0.45502
C         -5.01477       -10.12789         0.50188
C         -3.67665        -9.53929         0.40018
C         -2.50497       -10.21441         0.21016
C         -1.16623        -9.52612        -0.08109
C          0.06418       -10.02305         0.66490
C          1.23576        -9.30157         0.59854
C          2.42842        -9.71025         1.28279
C          3.62587        -9.00824         1.22099
C          4.79605        -9.48194         1.92598
C          5.98944        -8.82973         1.85903
O         -0.21208        -6.90633        -1.86786
O         -5.95503         0.50792        -2.50816
H         -6.11889         1.39509        -2.89884
O         -2.74358        -7.00328        -1.38454
O         -7.44851        -5.86674        -1.78990
H         -6.80051        -6.54594        -2.07737
O          2.16762         2.97163         2.21423
O          9.51907        -0.82538         1.36720
O          7.13669        -2.09007         1.21740
O         -1.63292        -0.44799        -1.49652
H         -1.20727        -1.14160        -2.06833
O          7.31292         5.56098         1.83021
O          0.00518        -2.38991        -2.11548
H          0.16170        -3.19546        -2.66821
O         -6.59259        -1.68512        -1.81269
O         -4.31785        -5.63566         1.24834
O         -0.45875         4.97460        -0.50737
O          3.70812         4.58177        -0.57722
O          6.03604        -0.94595        -1.93710
O         -3.71397        -7.82239         1.99173
O          5.84682        -3.32835        -1.91554
O          5.80243        -5.78624        -1.53274
O         -8.96337         0.73601         0.95296
O         -1.96912         7.31043        -1.13953
O         -3.45870         5.51558         1.75535
O         -1.53086        -4.29482        -1.90385
O         -4.26666         0.09866         1.44754
O         -7.69479         2.32555        -2.00249
O          3.59803         8.02533        -1.34971
O          0.14104         1.70969         2.12214
O         -9.48685        -5.41370         1.19781
H         -8.74888        -5.12464         1.78529
O         -4.41465         2.26914        -1.63057
O          1.34957        -4.78237        -2.50288
H          1.32068        -5.65496        -2.95759
O          3.74032        -4.12609         0.89689
O         -9.55873        -1.03416        -2.16851
O         -4.99396        -7.58475        -1.60616
O          2.96888        -6.77928        -1.65206
O          3.09429         1.87094        -1.25345
O          5.82316         3.12705         1.92018
O          8.80629         0.88897        -1.76456
H          8.71868         1.82548        -2.05374
O          2.35201        -2.18632        -1.99276
O          0.21573        -1.67460         1.46586
H         -0.66366        -1.72406         1.92983
O          7.29648         3.53139        -1.44037
O          6.05431         1.49140        -1.75288
H          6.69224         1.06338        -2.36584
O         -2.36904        -1.84317         1.86156
H         -2.78513        -1.09574         2.36000
O          1.14164        -4.03294         1.00855
H          1.07458        -3.20936         1.55716
O         -9.86073         5.70108        -0.33789
H        -10.58065         5.44097         0.27144
O         -3.67546         8.88618         1.51990
O         -2.03575         0.78063         1.77419
O         -5.56944         6.87902         1.72660
O         -7.43755        -3.14071         1.27360
O         -3.55656        -3.00466        -1.37607
O          3.67252        -0.18249        -2.47382
H          4.43349         0.39961        -2.69494
O          5.09396         6.94273         1.93841
O          2.65865         6.96401         2.11118
O          1.46841        -8.93114        -1.61224
O         -5.27688        -2.14150         1.49558
O         -1.03811        -9.71942        -1.48956
H         -0.10650        -9.48330        -1.77946
O          7.23263         8.18855         1.21699
H          7.31491         7.29852         1.67637
O         10.12086         1.67710         1.62727
H         10.24523         0.74824         1.94649
O         -6.81470        -5.57774         1.78646
H         -6.04508        -5.27375         2.31807
O          7.49519         1.26947         1.60869
H          8.35043         1.59553         1.99493
O         -0.83010        -7.76268         1.64470
H         -1.65738        -7.84358         2.17359
O          0.85191         5.30709         2.79379
H          1.46974         4.77809         3.34378
O          4.94715         0.65992         1.59504
H          5.67869         0.98742         2.17386
O          8.35740        -4.68450         2.11457
H          8.04659        -3.76148         2.24435
O          8.29114        -6.32217        -1.11411
H          7.56648        -6.58995        -1.72797
O         -1.64345         3.67360         2.70525
H         -1.53302         2.77483         3.08894
O         -7.79125         5.45183        -2.14500
H         -8.76270         5.54129        -2.25921
O         -4.44836         6.07888        -1.61744
H         -5.17660         5.96496        -2.26455
H         12.16393        -1.08008        -0.69266
H         12.19745         1.35323        -0.61146
H         10.89614         3.54486        -0.76037
H          8.73056         5.09065        -2.00204
H          7.75827         7.43677        -1.65886
H          7.08000         9.95021        -0.70918
H          4.93075        11.00545        -1.06019
H          2.40403        11.06546        -0.59774
H         -0.00775        11.11871        -0.42108
H         -2.48599        11.09303        -0.54166
H         -5.05687        11.14160        -0.41185
H         -7.12008         9.88207        -0.68356
H         -8.25749         7.77632        -1.06479
H         -8.47308         5.27265         1.17092
H        -10.77514         3.36021         0.34040
H        -12.10675         1.18183         0.14671
H        -12.27183        -1.17540        -0.42034
H        -11.10011        -3.50507        -0.86289
H         -9.82835        -5.71113        -0.81169
H         -8.61482        -7.90665         0.41836
H         -7.12120       -10.11601         0.61920
H         -5.03736       -11.22170         0.64092
H         -2.53364       -11.29788         0.00399
H         -0.01875       -10.85881         1.37888
H          2.39337       -10.64393         1.86613
H          4.70391       -10.40360         2.51906
H          6.86657        -9.22024         2.39496
H          8.23034        -7.43716         1.48060
H          9.69979        -5.41364         0.69689
H         10.95728        -3.37405         0.26247
