         344
 CSIRO Nanostructure Databank - Neutral Graphene Oxide Data Set
C          1.31857         3.42456        -0.98741
C          0.09403         4.08147        -0.95770
C          1.20325         6.23348        -0.58874
C          0.03045         5.46638        -0.77419
C          1.16238         7.66610        -0.40792
C         -0.01090         8.41638        -0.53903
C          1.18444        10.55723        -0.25498
C         -0.01906         9.80599        -0.41249
C          1.17872        12.00414        -0.24997
C         -0.05067        12.77307        -0.46540
C          1.04470        14.81764         0.40617
C         -0.13976        14.09245        -0.19717
C          1.03783        16.33508         0.26920
C         -0.16856        17.07341         0.46028
C          1.01909        19.21466        -0.01250
C         -0.19996        18.43999         0.39611
C          1.08709        20.67725         0.39642
C         -0.04557        21.42150         0.76072
C          1.15859        23.52160         0.42629
C          0.00137        22.81098         0.81426
C          1.15830        24.97903         0.31979
C          0.09357        25.75741         0.69905
C          1.24412        27.88209         0.30994
C          0.09172        27.19340         0.58957
C          1.35694        29.31921         0.35642
C          3.78857         3.50205        -0.91256
C          2.52464         4.15451        -0.82384
C          3.69404         6.31251        -0.49595
C          2.46356         5.56028        -0.60155
C          3.67179         7.69371        -0.30733
C          2.39837         8.37504         0.09230
C          3.64318        10.57578        -0.01479
C          2.41129         9.86669        -0.14094
C          3.61888        12.00745         0.10421
C          2.36668        12.69236        -0.03574
C          3.53106        14.87346         0.44213
C          2.33207        14.19813        -0.17611
C          3.55804        16.34015         0.17218
C          2.26390        17.06914         0.25111
C          3.53062        19.24979         0.58739
C          2.28519        18.45491         0.27289
C          3.55035        20.58703        -0.18239
C          2.29023        21.37218         0.14656
C          3.56412        23.41619        -0.47827
C          2.32126        22.77482         0.11309
C          3.62918        24.91038        -0.30641
C          2.31561        25.66436        -0.39362
C          3.63471        27.82791        -0.48647
C          2.51778        27.07747         0.20282
C          3.75474        29.28855        -0.23645
C          2.54208        29.97449         0.17142
C          6.27014         3.55388        -0.90397
C          4.98580         4.21028        -0.76951
C          6.16408         6.33829        -0.25432
C          4.95128         5.61982        -0.56143
C          6.15599         7.70286        -0.12175
C          4.93265         8.48060        -0.51991
C          6.10055        10.59699         0.19853
C          4.89192         9.89674        -0.00844
C          6.07524        12.02116         0.36249
C          4.84074        12.69856         0.31403
C          6.09235        14.90502         0.59368
C          4.82041        14.14968         0.58083
C          6.09605        16.30202         0.57418
C          4.85814        17.05545         0.26091
C          6.03450        19.18454         0.56122
C          4.84530        18.51489         0.44305
C          6.02364        20.68576         0.75940
C          4.80265        21.37323         0.16481
C          6.06672        23.50107         0.31999
C          4.81872        22.70888        -0.01985
C          6.09626        24.88734        -0.27455
C          4.83480        25.57040        -0.41570
C          6.15553        27.72484        -0.76380
C          4.87293        27.02197        -0.72083
C          6.12588        29.20128        -1.07901
C          4.94494        29.91505        -0.44856
C          8.71632         3.59544        -0.93070
C          7.44701         4.19778        -0.62490
C          8.62746         6.39821        -0.48952
C          7.43900         5.56501         0.02937
C          8.66523         7.77468         0.11804
C          7.34598         8.41423         0.46564
C          8.56122        10.60561         0.43800
C          7.36237         9.91110         0.29136
C          8.54831        12.04911         0.53508
C          7.31359        12.74231         0.54237
C          8.53194        14.88187         0.84637
C          7.31088        14.17227         0.66022
C          8.51308        16.30333         0.93232
C          7.31348        17.02856         0.74293
C          8.50432        19.20490         0.60614
C          7.29641        18.47522         0.65154
C          8.53109        20.58349         0.29007
C          7.30330        21.34936         0.28951
C          8.52010        23.34119        -0.57260
C          7.30242        22.68900         0.02233
C          8.56083        24.84530        -0.41353
C          7.30603        25.56040        -0.43297
C          8.59471        27.70150        -0.61665
C          7.33225        27.01131        -0.62301
C          8.61779        29.14572        -0.66988
C          7.43616        29.86912        -0.80704
C         11.19417         3.58413        -1.23020
C          9.90967         4.28153        -0.86200
C         11.12136         6.30911        -0.13319
C          9.94058         5.66081        -0.44882
C         11.08433         7.61293         0.62998
C          9.82489         8.42691         0.39976
C         11.02006        10.55375         0.77676
C          9.83514         9.88113         0.59954
C         11.08349        12.04812         0.53553
C          9.77134        12.77209         0.73533
C         10.99118        14.86523         1.44533
C          9.76129        14.14720         0.93353
C         11.05778        16.32570         1.08065
C          9.77041        17.03555         1.17058
C         11.05143        19.17501         0.61467
C          9.77180        18.53355         0.94986
C         11.02868        20.55118         0.26329
C          9.78342        21.26786         0.12704
C         11.02076        23.35242        -0.26827
C          9.79797        22.64564        -0.17412
C         11.03179        24.77839        -0.46877
C          9.77403        25.51345        -0.50354
C         11.03346        27.66232        -0.60103
C          9.80836        26.97272        -0.56192
C         11.07571        29.09149        -0.57915
C          9.88152        29.81273        -0.58988
C         13.65473         3.65183        -0.87619
C         12.44146         4.31076        -0.77802
C         13.60698         6.32715         0.04006
C         12.39136         5.65120        -0.29480
C         13.56929         7.74855         0.41424
C         12.35421         8.40259         0.54503
C         13.56558        10.56653         0.82250
C         12.30263         9.80098         1.10031
C         13.52954        11.98144         1.23556
C         12.28096        12.75843         1.13400
C         13.50669        14.91458         1.33976
C         12.28865        14.13093         1.23775
C         13.52536        16.29951         1.12882
C         12.25201        17.01458         0.98022
C         13.49546        19.11916         0.44731
C         12.25951        18.44810         0.69989
C         13.48894        20.51057         0.14111
C         12.25629        21.23263         0.06329
C         13.48811        23.33864        -0.30073
C         12.25532        22.64117        -0.17071
C         13.48746        24.74933        -0.43647
C         12.25715        25.45277        -0.53180
C         13.49114        27.59538        -0.11991
C         12.32275        26.92759        -0.84449
C         13.54448        29.07849        -0.41913
C         12.36020        29.76490        -0.56896
C         16.10897         3.63200        -0.64849
C         14.86822         4.29246        -0.50244
C         16.08523         6.19983         0.57226
C         14.82460         5.64596        -0.04601
C         16.06199         7.71379         0.75756
C         14.80163         8.45900         0.61908
C         16.06098        10.62167         0.74735
C         14.78990         9.88563         0.74238
C         16.02955        12.13921         0.74605
C         14.80980        12.70486         1.45241
C         16.05950        14.95364         1.50928
C         14.76787        14.20034         1.59721
C         16.01556        16.37294         1.12571
C         14.77898        17.02465         0.99177
C         15.94403        19.10901         0.30365
C         14.75340        18.43120         0.58235
C         15.94286        20.48069        -0.12388
C         14.71335        21.20094        -0.10934
C         15.94956        23.29555        -0.51310
C         14.72239        22.61040        -0.31389
C         15.96658        24.72460        -0.56434
C         14.74716        25.45553        -0.48035
C         16.00086        27.55349        -0.50637
C         14.78011        26.86502        -0.41322
C         16.01286        29.01754        -0.43110
C         14.81786        29.72770        -0.41355
C         18.56103         3.69797        -0.91883
C         17.33743         4.33090        -0.52510
C         18.55091         6.43500        -0.15463
C         17.34939         5.68228        -0.09258
C         18.58454         7.84225         0.13731
C         17.35220         8.49845         0.63894
C         18.55980        10.66827         0.69954
C         17.25009         9.97383         0.57444
C         18.59454        12.10288         1.09484
C         17.31592        12.84560         1.16375
C         18.60126        14.97267         1.57609
C         17.32814        14.19055         1.34029
C         18.50369        16.38442         1.00641
C         17.27705        17.02634         0.89717
C         18.41127        18.96790        -0.17280
C         17.27304        18.52422         0.71440
C         18.34186        20.33165        -0.78808
C         17.13566        21.14737        -0.52428
C         18.39487        23.27119        -0.89890
C         17.16636        22.55585        -0.67682
C         18.43890        24.67553        -0.81050
C         17.20278        25.42512        -0.67568
C         18.47800        27.57741        -0.98909
C         17.20673        26.83336        -0.67610
C         18.47579        28.99825        -0.46648
C         17.27551        29.68138        -0.34548
C         19.73098         4.40853        -0.95831
C         20.91844         6.56509        -0.81133
C         19.74567         5.79932        -0.63251
C         20.90477         7.93259        -0.59832
C         19.74208         8.58874        -0.12790
C         21.00921        10.78788         0.28436
C         19.71659        10.11052        -0.10359
C         21.04744        12.08143         0.67761
C         19.85244        12.87137         0.93197
C         21.05384        15.02871         1.05206
C         19.85306        14.23368         1.12933
C         20.99671        16.38101         0.90672
C         19.74465        17.07891         0.70345
C         20.89977        19.01705        -0.38394
C         19.72759        18.33893         0.09622
C         20.86083        20.23796        -0.99019
C         19.62023        21.00054        -1.19270
C         20.90221        23.26354        -1.06626
C         19.63830        22.53280        -1.21649
C         20.91088        24.60223        -0.83191
C         19.69750        25.37586        -0.77908
C         20.91222        27.51547        -0.43384
C         19.73452        26.79537        -0.66651
C         20.90708        28.91715        -0.26859
C         19.72495        29.64281        -0.25704
O         18.79897        11.01520         2.09668
O         16.85609         8.05042         1.95867
O         15.43993        14.67368         2.82253
O          3.94235        27.41836        -1.85857
O         19.54848        21.72289        -2.45728
O         18.06892        19.10921        -1.58095
O         14.24168        12.03884         2.60293
O          9.72780        17.96799         2.31483
O          4.28142        16.64373        -1.08070
O          3.94039        14.47177         1.76608
O         15.81670        12.53670        -0.65009
H         16.54522        12.16359        -1.19087
O          5.89264        29.30328        -2.53961
H          5.10458        28.73521        -2.72226
O          3.55414        20.31784        -1.60876
H          3.58892        21.19973        -2.05697
O          3.39363        19.59282         2.00253
H          4.20445        20.08973         2.27734
O         17.56866        19.09637         2.03355
H         16.98666        18.65795         2.69009
O          6.04382        23.71480         1.77118
H          5.98188        22.82067         2.19091
O         12.26156         9.64319         2.59311
H         12.88821        10.29567         2.98320
O          3.44192        23.19669        -1.93193
H          2.75545        23.83448        -2.24653
O          5.91866        20.91075         2.22054
H          6.67840        20.45092         2.64114
O         18.49365        27.71518        -2.45895
H         19.31409        28.19925        -2.69265
O          8.33701         6.61298        -1.91253
H          9.07951         7.12366        -2.29831
O         11.19685         2.23112        -0.75591
H         11.13472         2.25292         0.22119
O          7.56914         5.37362         1.45061
H          7.43212         6.25408         1.88111
O          7.21448         8.17845         1.92775
H          7.98057         8.61132         2.36451
O         12.60741        27.05186        -2.27100
H         11.84373        26.68997        -2.76683
O          2.99313        26.89833         1.56757
H          2.27413        26.47490         2.08311
O         19.41426        10.51169        -1.48510
H         20.12903        10.16454        -2.05985
O         18.72982        15.15697         3.02048
H         18.58815        14.28596         3.44843
O         16.11016         5.60763         1.91197
H         16.62313         6.23318         2.47695
O          8.39591        23.12373        -2.03432
H          9.22919        23.43641        -2.44681
O         11.34314        12.14347        -0.92419
H         10.55794        11.77527        -1.38376
O          1.92505        25.71236        -1.79328
H          2.58820        26.29120        -2.24857
O         10.98220         7.21679         2.04786
H         11.38519         7.94539         2.58051
O          2.33470         8.23281         1.57926
H          1.51533         8.68580         1.87408
O          2.36970        14.46147        -1.60062
H          2.85153        15.30109        -1.76911
O          0.96728        19.27581        -1.49828
H          1.86824        19.57269        -1.79652
O         13.23237        27.45464         1.30548
H         13.95887        27.89953         1.78944
O          1.05014        14.54292         1.83399
H          0.26522        14.97229         2.23262
O         10.80675        14.85950         2.90807
H         11.51016        15.41888         3.30177
O          5.04159         8.64980        -1.99920
H          5.22082         7.76171        -2.37818
H          1.36298         2.33782        -1.14738
H         -0.83644         3.51061        -1.08506
H         -0.95502         5.95134        -0.75541
H         -0.96058         7.91471        -0.77457
H         -0.97912        10.33021        -0.50441
H         -0.93397        12.25014        -0.86034
H         -1.09080        14.62397        -0.35328
H         -1.09922        16.52364         0.67095
H         -1.15895        18.96350         0.51594
H         -0.99424        20.91507         0.98609
H         -0.91251        23.35566         1.08754
H         -0.80868        25.29257         1.12191
H         -0.84377        27.73526         0.79272
H          0.45049        29.89716         0.59314
H          3.81665         2.41662        -1.08970
H          2.58203        31.06901         0.27406
H          6.28864         2.52932        -1.30757
H          5.02453        31.00202        -0.28991
H          8.73008         2.54349        -1.25621
H          7.47915        30.96760        -0.86045
H         11.23586         3.51511        -2.35637
H          9.90455        30.91248        -0.58780
H         13.67913         2.61269        -1.23524
H         12.37354        30.85896        -0.69356
H         16.12190         2.58847        -0.99659
H         14.84860        30.82840        -0.43977
H         18.54025         2.63723        -1.20755
H         17.28786        30.76178        -0.13110
H         20.66750         3.92952        -1.27863
H         21.83359         6.07253        -1.16994
H         21.81571         8.51333        -0.80013
H         21.95741        10.24745         0.14895
H         22.02724        12.55126         0.85127
H         22.03420        14.53142         1.08239
H         21.93623        16.94676         0.84753
H         21.87740        18.52566        -0.28151
H         21.79248        20.66520        -1.38669
H         21.84988        22.72318        -1.19411
H         21.87869        25.11548        -0.75083
H         21.86954        26.99019        -0.31129
H         21.85984        29.43019        -0.07647
H         19.73973        30.71647        -0.01818
