         300
 CSIRO Nanostructure Databank - Neutral Graphene Oxide Data Set
C         31.40925        31.44416         2.77062
C         31.36579        32.67642         2.93594
C         31.23559        36.18096         2.85232
C         31.38679        37.41327         2.99486
C         31.66603        40.55571         3.31082
C         31.67019        41.79580         3.31998
C         32.76282        28.88025         0.35623
C         32.17128        29.33527         1.35276
C         32.68536        31.63139         0.68540
C         32.38453        30.49946         2.22497
C         32.85353        33.11520         1.06421
C         31.94939        33.76542         2.11191
C         33.07620        36.09148         1.26915
C         32.28078        35.14446         2.63841
C         33.35101        37.53180         1.67196
C         32.45842        38.23125         2.44446
C         33.47439        40.42194         1.76964
C         32.77382        39.63190         2.90855
C         33.63501        41.89939         1.94449
C         32.28991        42.66386         2.25733
C         33.35514        44.75065         1.68869
C         32.58189        44.12747         2.49193
C         35.17113        27.38431        -1.43893
C         34.88811        28.82341        -1.22730
C         33.69766        29.52063        -0.58525
C         35.15131        31.59049        -0.01993
C         33.77330        31.02349        -0.17471
C         35.37160        33.03974         0.50581
C         34.05256        33.84367         0.41882
C         35.23293        36.05173        -0.06360
C         34.34685        35.31451         0.94829
C         35.44445        37.51019         0.13888
C         34.68562        38.18245         1.28300
C         35.65005        40.42942         0.42358
C         34.51309        39.67273         1.01002
C         35.81725        41.75867         0.72384
C         34.87647        42.41004         1.64345
C         35.23662        44.75660        -0.11971
C         34.64985        44.56754         1.24611
C         35.49580        46.20825        -0.42032
C         37.54405        27.46022        -2.22368
C         36.19790        26.85548        -1.87095
C         37.54180        28.66353        -1.19796
C         36.23067        29.51826        -1.25270
C         37.56722        31.59508        -0.75223
C         36.31462        30.83940        -0.55025
C         37.53439        32.92754        -1.00226
C         36.54780        33.80016        -0.22960
C         37.50326        35.93421        -1.26869
C         36.29129        35.21785        -0.73717
C         37.50220        37.44172        -1.26223
C         36.44068        38.18108        -0.51631
C         37.81294        40.35051        -0.83883
C         36.44579        39.70932        -0.64423
C         37.97282        41.81943        -0.62038
C         36.87085        42.61215         0.04832
C         37.53786        44.62655        -1.52587
C         36.67843        44.07080        -0.33436
C         37.62034        46.17012        -1.63312
C         36.41477        46.73525        -1.03721
C         39.95270        24.52949        -1.44613
C         38.94356        25.21660        -1.66211
C         40.13170        27.31479        -1.62178
C         38.82686        26.63738        -2.03580
C         40.14632        28.79840        -1.29721
C         38.83526        29.50595        -1.21409
C         40.03274        31.58432        -0.23465
C         38.76414        30.76296        -0.36096
C         39.99939        33.09044        -0.29242
C         38.68522        33.79968        -0.57659
C         40.10675        35.89485        -1.11269
C         38.80367        35.16069        -1.23578
C         40.05904        37.39770        -1.00453
C         38.83431        38.12995        -1.50171
C         40.23115        40.32346        -1.62971
C         38.88293        39.62301        -1.61865
C         40.28718        41.84174        -1.78164
C         38.89062        42.48951        -1.64895
C         40.14032        44.67596        -1.66404
C         38.95596        44.01016        -1.54860
C         40.25103        46.17683        -2.01104
C         38.88335        46.90455        -1.84990
C         40.06335        48.93167        -1.13326
C         39.05635        48.31468        -1.50486
C         42.59566        24.44571        -1.04563
C         41.23864        24.98989        -0.91476
C         42.64613        27.23948        -1.23287
C         41.31457        26.52935        -1.06259
C         42.65639        28.74342        -0.97104
C         41.31751        29.28314        -0.41825
C         42.63147        31.54358        -0.09371
C         41.33789        30.79599        -0.16510
C         42.59220        33.00304        -0.63025
C         41.29755        33.81337        -0.43311
C         42.53992        35.95524        -0.31583
C         41.31226        35.16496        -0.61770
C         42.62250        37.42588        -0.73863
C         41.28723        38.15788        -0.62153
C         42.54685        40.40284        -0.50772
C         41.40001        39.60238        -1.04724
C         42.59589        41.86226        -0.82969
C         41.46036        42.54031        -1.13356
C         42.78687        44.67516        -1.67506
C         41.46804        43.88246        -1.82825
C         42.75655        46.18118        -1.49442
C         41.39314        46.81710        -1.20368
C         42.60595        48.87759        -0.52215
C         41.47721        48.67430        -1.44827
C         43.64659        25.10560        -0.98521
C         45.10862        27.19501        -0.81274
C         43.93757        26.50779        -1.05411
C         45.11461        28.64667        -0.57289
C         43.94148        29.37155        -0.60935
C         45.16111        31.58582        -0.64365
C         43.98613        30.77931        -0.03215
C         45.13312        32.99273        -0.01928
C         43.83207        33.73237        -0.10420
C         45.12626        35.97488        -0.24132
C         43.82270        35.23515        -0.03260
C         45.12803        37.47555        -0.30445
C         43.79158        38.13396         0.05651
C         45.08325        40.35536         0.05611
C         43.78344        39.65934        -0.09027
C         44.99369        41.87268         0.09421
C         44.00224        42.39323        -1.03057
C         45.30798        44.67711        -0.84210
C         44.07322        43.91987        -1.28684
C         45.31371        46.20952        -0.78443
C         44.02891        46.92983        -1.03108
C         43.68148        48.26505        -0.54440
C         47.51230        27.22266        -0.30719
C         46.42719        26.68202        -0.55378
C         47.70376        28.62062         0.11324
C         46.36698        29.34985        -0.09234
C         47.75457        31.56211        -0.14979
C         46.47225        30.82381        -0.40662
C         47.76968        33.09593        -0.16709
C         46.43226        33.74843         0.31421
C         47.64909        36.00957         0.35362
C         46.43808        35.23560        -0.07411
C         47.30064        37.38226         0.95895
C         46.45016        38.23424        -0.04864
C         47.44301        40.42673         0.79111
C         46.23837        39.68884         0.36352
C         47.50535        41.77947         0.60694
C         46.39515        42.48084        -0.15938
C         47.71074        44.66174         0.01122
C         46.32955        43.99547         0.11273
C         47.49494        46.01736         0.01743
C         46.42577        46.74458         0.06011
C         51.74925        29.67725         3.41206
C         49.02342        29.35476         0.12017
C         50.10539        31.48898         0.72384
C         48.97232        30.84117         0.31856
C         50.06029        32.93003         1.11973
C         48.81178        33.71938         0.77178
C         49.74684        35.84319         1.86826
C         48.95954        35.25793         0.69751
C         49.68134        37.34538         2.04723
C         48.48010        38.16411         1.57101
C         49.73277        40.46703         2.12382
C         48.50291        39.68093         1.55573
C         49.92033        41.87875         1.49368
C         48.75859        42.55599         0.82902
C         50.23294        44.40395         0.44592
C         48.94829        43.82562        -0.07919
C         51.55098        30.16073         2.27459
C         53.51996        33.30480         0.12852
C         51.34150        30.70105         1.02429
C         52.43014        33.53956         0.72872
C         51.25023        33.77454         1.36142
C         52.08740        35.98401         2.40001
C         51.02943        34.93107         2.31174
C         52.04909        37.20074         2.58432
C         50.98882        38.13432         2.17906
C         52.12777        40.53069         2.42941
C         51.02390        39.61711         2.10599
C         52.24693        41.74610         2.22441
C         51.39146        42.41386         1.17185
C         51.19499        43.89305         1.02104
O         42.60499        28.20590        -2.32270
O         33.23042        30.57277        -1.45468
O         35.10631        35.62094        -1.44562
O         37.99500        46.59542        -2.96917
O         37.17229        36.67130        -2.46599
O         41.10793        25.86701         0.21815
O         40.35154        37.80070         0.40750
O         39.90912        32.39760         0.98607
O         42.95254        45.59035        -2.79047
O         49.09169        42.83019         2.22758
O         47.92375        38.94056         2.67863
O         38.53214        40.86927         0.33651
O         37.78566        34.08222         0.64590
O         38.73259        38.80911        -2.79825
O         45.07966        46.87648        -2.02607
O         50.09661        28.78362         0.03641
O         42.97888        35.68381         1.05647
O         40.69000        42.09994        -3.19655
O         39.67325        29.64109        -2.38651
O         47.37962        35.76477        -1.05458
O         41.42122        43.40448        -3.23115
O         49.18306        36.40673         3.06629
O         47.40709        31.04970        -1.51584
O         48.95071        33.15843         2.06742
O         35.94041        30.68785         0.86498
O         46.84879        28.98147         1.22580
O         39.65195        35.31544        -2.38884
O         39.84269        26.99479        -3.01605
O         31.57291        33.77429         0.74344
O         33.19712        39.97262         0.41296
O         51.22315        38.82991         0.91207
O         42.78967        40.18580         0.91880
O         35.32773        43.67810         2.09847
O         37.43355        43.72847         0.83072
O         41.93381        31.17590         1.12567
O         45.14469        36.69989        -1.53142
O         35.38290        29.52145        -2.41497
O         41.22074        39.70337        -2.48752
O         45.19167        44.18825        -2.19266
O         44.24496        33.10160         1.13825
O         41.08285        46.63470         0.16567
H         41.69136        47.17491         0.71613
O         33.71553        39.55500         3.98284
H         33.25802        39.20948         4.77660
O         42.83010        37.51375        -2.15351
H         43.69193        37.10409        -2.40302
O         38.49311        30.29653         0.98680
H         38.68364        31.04930         1.59535
O         37.54698        28.00854         0.08091
H         37.62841        28.68574         0.79480
O         52.24220        30.64584         0.06862
H         53.03889        30.16281         0.37283
O         41.81918        49.00806        -2.72667
H         41.05909        48.89588        -3.33193
O         44.98680        31.69805        -2.06639
H         45.86178        31.55442        -2.50017
O         46.42517        37.02345         2.04285
H         46.51798        37.70410         2.75093
O         36.78087        44.22757        -2.68122
H         37.13930        44.70248        -3.46348
O         33.46903        30.31916         3.05158
H         33.41002        30.90935         3.82897
O         32.21413        36.08283         0.16202
H         31.42901        36.63598         0.36012
O         33.68891        33.83181        -0.96201
H         32.83157        34.30696        -1.05185
O         47.16914        38.37636        -1.28263
H         47.05478        37.53818        -1.79365
O         50.73913        34.39122         3.57013
H         50.28956        35.07959         4.11079
O         41.10653        28.64134         0.85350
H         41.44717        29.23063         1.56310
O         31.45120        31.48872         0.05750
H         31.56894        30.93349        -0.74875
O         51.75216        41.89224        -0.07611
H         52.65377        42.18842        -0.31540
O         37.49289        27.94764        -3.53701
H         38.30780        27.68474        -4.01952
O         49.85905        35.50403        -0.40541
H         49.37880        35.27938        -1.23724
O         49.48827        40.67357         3.51580
H         48.99209        41.51841         3.61671
O         48.10871        33.49427        -1.49867
H         47.96118        32.73088        -2.10331
O         49.16732        43.36872        -1.40697
H         48.97748        44.09460        -2.03669
O         33.09009        35.01779         3.75580
H         33.26268        35.90039         4.14225
O         40.58387        46.27560        -3.39487
H         39.78326        46.05750        -3.92031
O         43.67845        37.91516         1.46690
H         42.93373        38.45877         1.80925
O         35.75918        39.97051        -1.89729
H         34.86698        39.56435        -1.86231
O         45.82740        44.28065         1.42335
H         46.46131        43.95107         2.09387
O         44.49692        42.25273         1.37987
H         43.75941        41.63563         1.60757
O         46.53808        33.75020         1.74655
H         45.62934        33.75623         2.13177
O         44.36763        41.72674        -2.25780
H         44.87512        42.37341        -2.80461
O         35.09383        35.35152         2.18549
H         35.70444        34.57638         2.26078
O         35.56713        38.06419         2.42347
H         35.63112        37.10064         2.63930
O         35.72391        32.90468         1.88625
H         36.23660        32.06105         1.97380
O         34.36233        44.19960        -1.07982
H         34.78221        44.28242        -1.96715
O         31.51581        42.55505         1.08479
H         30.63135        42.94384         1.24192
O         42.61834        32.90793        -2.06801
H         43.43705        32.43936        -2.36841
O         38.22015        42.18680        -2.89279
H         38.89502        42.23025        -3.61337
O         44.36618        30.61392         1.34679
H         43.57002        30.74500         1.91118
O         46.75501        42.31057        -1.54191
H         46.89658        41.35604        -1.71750
