         210
 CSIRO Nanostructure Databank - Neutral Graphene Oxide Data Set
C         30.39427        31.70200         0.35061
C         30.49410        32.95873         0.44806
C         30.40627        35.98738         0.20189
C         30.55366        37.14384        -0.21299
C         30.58220        40.03988        -1.42956
C         30.56343        41.26314        -1.71259
C         32.79421        28.91717         0.68247
C         31.68855        29.47092         0.48301
C         32.79958        31.61095         0.54618
C         31.53711        30.88246         0.44074
C         32.81548        33.04853         0.57274
C         31.60132        33.79552         0.55574
C         32.87272        35.93865         0.35542
C         31.58638        35.26200         0.83893
C         32.89312        37.28323        -0.11245
C         31.67909        37.97916        -0.47197
C         32.95451        39.97902        -1.12408
C         31.71443        39.26702        -0.99956
C         33.04330        41.32978        -1.81450
C         31.64322        42.13779        -1.85307
C         32.97007        44.13614        -1.81353
C         31.88158        43.49154        -1.93038
C         35.41058        27.44211         1.45054
C         35.27690        28.80292         1.14032
C         34.07823        29.48619         0.83111
C         35.29484        31.62167         0.82582
C         34.04706        30.91158         0.71418
C         35.29777        33.05535         0.71646
C         34.07080        33.76872         0.61536
C         35.33246        35.88810         0.29604
C         34.07774        35.20007         0.44119
C         35.34991        37.28657         0.00417
C         34.13097        37.97827        -0.27139
C         35.39580        40.07706        -0.67214
C         34.14860        39.34529        -0.70748
C         35.39698        41.49850        -0.89024
C         34.21397        42.16398        -1.30592
C         35.37180        44.33774        -1.05124
C         34.20733        43.59009        -1.37610
C         35.51393        45.73895        -1.04393
C         37.66065        27.39163         1.90965
C         36.39775        26.74398         1.79876
C         37.72335        28.75266         1.57167
C         36.53548        29.48641         1.24921
C         37.73886        31.65262         1.18191
C         36.52079        30.92387         1.05981
C         37.76810        33.05303         0.94017
C         36.54515        33.76403         0.71052
C         37.79804        35.89471         0.42249
C         36.55837        35.17810         0.47654
C         37.80774        37.30543         0.19140
C         36.58725        37.99993        -0.04716
C         37.82553        40.14436        -0.20873
C         36.59425        39.40962        -0.31090
C         37.81910        41.56439        -0.33383
C         36.60482        42.24699        -0.64273
C         37.81849        44.41084        -0.47738
C         36.60428        43.67105        -0.71938
C         37.83213        45.85681        -0.47770
C         36.56565        46.37857        -0.77727
C         40.30429        24.89932        -0.56073
C         39.63565        25.16035         0.49239
C         40.12493        27.50248         0.30332
C         39.49547        26.44725         1.03761
C         40.18528        28.85633         0.79582
C         39.08573        29.41166         1.75463
C         40.26690        31.70847         1.52393
C         38.96974        30.95450         1.63737
C         40.24988        33.10809         1.04777
C         39.02079        33.78188         0.88103
C         40.26378        35.90433         0.52818
C         39.03109        35.19181         0.60479
C         40.27038        37.32423         0.33885
C         39.04349        38.03181         0.18740
C         40.28292        40.18545         0.11607
C         39.05096        39.45271         0.02798
C         40.27382        41.60158         0.05667
C         39.04164        42.30657        -0.17288
C         40.34366        44.48002        -0.33387
C         39.03677        43.71752        -0.24628
C         40.25765        45.93482         0.08990
C         39.01356        46.58772        -0.12503
C         40.14028        48.66568         0.37900
C         39.12641        47.97897         0.06949
C         42.09651        25.56013        -2.29450
C         41.01152        25.72457        -1.40968
C         42.30021        27.96525        -0.99501
C         40.96905        27.14456        -0.86098
C         42.49384        29.11509        -0.11118
C         41.35988        29.61236         0.60290
C         42.74247        31.68011         1.03489
C         41.54685        30.87180         1.44030
C         42.72554        33.09222         1.05130
C         41.47996        33.79859         0.94402
C         42.75102        35.86790         0.60970
C         41.50465        35.19899         0.68973
C         42.76108        37.28349         0.21820
C         41.50213        38.04109         0.26359
C         42.76991        40.15719         0.34626
C         41.52522        39.44901         0.22040
C         42.70316        41.60527         0.63727
C         41.47908        42.36086         0.31928
C         42.72922        44.51201         0.51639
C         41.51820        43.74522         0.25849
C         42.67224        45.92831         0.65870
C         41.44690        46.64989         0.44150
C         42.69731        48.64300         0.87043
C         41.41367        48.11084         0.55954
C         43.05585        26.31417        -2.60260
C         44.70818        28.13040        -1.71901
C         43.55277        27.21335        -1.47739
C         44.88486        29.28383        -0.89302
C         43.77191        29.75218        -0.08929
C         45.15347        31.70644         0.59699
C         43.92014        31.01796         0.56923
C         45.16508        32.97947         1.43116
C         43.95750        33.80897         1.05738
C         45.22888        35.96461         1.11666
C         43.97281        35.19267         0.86883
C         45.32110        37.38270         0.69710
C         44.07746        38.04453         0.25022
C         45.26527        40.19609         0.40569
C         44.00878        39.50357         0.39225
C         45.20857        41.65087         0.19007
C         44.00304        42.38202         0.65550
C         45.24095        44.54758         0.49408
C         43.98025        43.84239         0.54440
C         45.19883        45.95714         0.73842
C         43.93495        46.59482         1.23396
C         43.79815        48.07343         0.94939
C         46.96510        28.44078        -2.42915
C         45.87887        27.80637        -2.42660
C         47.29496        29.53778        -1.59580
C         46.14496        29.98504        -0.84726
C         47.58729        31.77299         0.10718
C         46.30325        31.16028        -0.03242
C         47.72504        33.04268         0.85820
C         46.50350        33.72099         1.39388
C         47.81890        35.95483         1.30049
C         46.50137        35.22792         1.45984
C         47.79973        37.45273         1.02277
C         46.49722        38.10590         0.73435
C         47.75041        40.24893         0.20397
C         46.49639        39.52660         0.41984
C         47.73793        41.62602         0.00352
C         46.48285        42.40830        -0.02759
C         47.73060        44.55139         0.20443
C         46.48169        43.86851         0.24958
C         47.57740        45.93766         0.44095
C         46.48448        46.50657         0.71774
C         49.80763        29.78113        -2.01161
C         48.55327        30.15854        -1.44644
C         50.05845        31.81042        -0.26129
C         48.72811        31.25326        -0.54030
C         50.16067        33.05349         0.32072
C         48.97031        33.82796         0.64151
C         50.26680        35.93318         0.73160
C         49.02189        35.18723         0.88888
C         50.25562        37.37684         0.59720
C         49.04014        38.12856         0.55127
C         50.26762        40.19392         0.01399
C         49.02481        39.50813         0.22784
C         50.30480        41.62624        -0.39048
C         48.95123        42.38781        -0.35506
C         50.21880        44.35014        -0.31906
C         48.94278        43.86446        -0.14509
C         50.97187        30.21214        -1.91432
C         52.46845        31.92033        -0.64722
C         51.34076        30.93561        -0.62233
C         52.52393        32.98311        -0.03418
C         51.48449        33.68923         0.78421
C         52.60775        36.00434         0.58678
C         51.46199        35.18408         0.66043
C         52.61937        37.25585         0.50744
C         51.49045        38.10475         0.45605
C         52.62934        40.35409         0.17221
C         51.48488        39.49616         0.22983
C         52.69009        41.58286        -0.04422
C         51.58684        42.44151        -0.28144
C         51.37438        43.80101        -0.38729
O         38.80454        26.66506         2.20899
O         48.01791        36.91761         2.37562
O         45.60333        42.04691        -1.16695
O         39.57446        31.60162         2.80923
O         47.41989        33.05052         2.31968
O         43.54607        37.52145        -1.01987
O         43.39629        41.91460         1.90447
O         45.68028        35.76908         2.52099
O         41.16980        28.13952        -1.88624
O         49.55545        41.92264        -1.60398
O         39.49068        29.07605         3.08733
H         40.32620        29.57412         3.28211
O         43.89189        46.40679         2.65887
H         44.72767        46.74592         3.04254
O         40.64763        44.53233        -1.78364
H         39.89722        44.98083        -2.22937
O         41.86433        30.39187         2.78927
H         42.11036        31.17130         3.33309
O         51.52870        30.00004         0.39415
H         52.34144        29.48376         0.22068
O         31.52011        35.44624         2.25691
H         30.74959        34.94747         2.60031
O         33.32140        41.04895        -3.20974
H         33.49613        41.89896        -3.66663
O         44.93662        32.57913         2.81208
H         45.82495        32.41180         3.20483
O         43.94720        26.38587        -0.36849
H         44.80472        25.96184        -0.58367
O         51.64832        33.35647         2.16198
H         52.36862        33.90410         2.53741
