         421
 CSIRO Nanostructure Databank - Neutral Graphene Oxide Data Set
C          1.26329         3.55771        -1.10393
C          0.05150         4.22752        -0.95412
C          1.22704         6.31038        -0.44369
C          0.02586         5.58680        -0.64117
C          1.22309         7.74222        -0.13045
C          0.01983         8.43884         0.06651
C          1.19113        10.56886         0.30984
C         -0.00035         9.81249         0.27872
C          1.17661        12.00274         0.50286
C         -0.03964        12.72424         0.58616
C          1.15829        14.83077         0.87427
C         -0.04921        14.09189         0.75883
C          1.14899        16.26448         1.02274
C         -0.06415        16.99906         1.05529
C          1.15302        19.11172         1.16221
C         -0.06336        18.37323         1.12978
C          1.14303        20.55731         1.08912
C         -0.06674        21.28854         1.00603
C          1.14014        23.38639         0.70768
C         -0.07038        22.65441         0.79957
C          1.14646        24.80060         0.40342
C         -0.01612        25.48774        -0.01957
C          1.24547        27.56583        -0.31680
C          0.04422        26.80840        -0.42116
C          1.32544        28.93717        -0.81321
C          0.26663        29.52711        -1.51071
C          1.52822        31.57703        -1.95160
C          0.35864        30.80475        -2.07454
C          1.60734        32.94637        -2.44147
C          0.55809        33.54920        -3.17994
C          1.72890        35.68817        -3.25255
C          0.61385        34.87831        -3.57240
C          1.79675        37.07431        -3.61431
C          3.74128         3.58702        -1.11515
C          2.48115         4.25703        -0.94311
C          3.76400         6.30898        -0.27884
C          2.45142         5.63486        -0.59868
C          3.70113         7.81705        -0.25384
C          2.45414         8.47397        -0.06731
C          3.66527        10.61422         0.25637
C          2.43394         9.88985         0.15234
C          3.64836        12.01717         0.51991
C          2.40357        12.71739         0.61312
C          3.63210        14.84996         0.98620
C          2.39460        14.13320         0.81508
C          3.60744        16.25284         1.17716
C          2.38225        16.97135         1.14587
C          3.63072        19.13673         1.20059
C          2.37862        18.40906         1.20499
C          3.61898        20.55936         1.08691
C          2.37657        21.26936         1.03382
C          3.61153        23.41060         0.85578
C          2.36591        22.68991         0.88532
C          3.58368        24.83055         0.73445
C          2.37214        25.53204         0.48177
C          3.57009        27.77222         0.64708
C          2.38379        26.93943         0.21901
C          3.65233        29.11792        -0.00750
C          2.56755        29.67164        -0.68467
C          3.76948        31.81365        -0.96359
C          2.63937        31.01070        -1.25479
C          3.82321        33.18930        -1.35974
C          2.75151        33.73512        -2.13499
C          3.96402        35.89143        -2.23921
C          2.81560        35.10405        -2.54083
C          4.00650        37.27298        -2.59350
C          2.88339        37.84186        -3.28433
C          6.17937         3.64059        -1.30692
C          4.94197         4.29184        -1.17643
C          6.18601         6.49865        -0.94176
C          4.86729         5.80858        -1.20880
C          6.16968         7.88564        -0.55019
C          4.91124         8.53779        -0.24042
C          6.13747        10.63101         0.30958
C          4.90663         9.93183         0.08864
C          6.10311        12.00195         0.64932
C          4.87814        12.72664         0.69852
C          6.12152        14.86225         1.07660
C          4.87281        14.13324         0.95279
C          6.12329        16.26708         1.23338
C          4.85403        16.97720         1.61557
C          6.09732        19.14491         1.17918
C          4.85818        18.44808         1.28702
C          6.08783        20.54957         0.97408
C          4.86078        21.27365         0.97510
C          6.12247        23.46427         0.63976
C          4.83836        22.69502         0.88176
C          6.02862        24.84579         1.30448
C          4.86396        25.55968         0.67002
C          6.12314        27.78410         0.91719
C          4.89512        27.04348         0.52964
C          6.10635        29.18442         0.87551
C          4.99463        29.81156        -0.00767
C          5.61127        32.24901         0.48988
C          4.77114        31.31409        -0.07056
C          5.94218        33.49746        -0.12145
C          4.95740        33.98746        -1.04407
C          6.27832        36.03675        -1.34823
C          5.07191        35.31801        -1.55004
C          6.29776        37.45278        -1.67254
C          5.13373        38.03072        -2.23449
C          8.63570         3.69931        -1.41152
C          7.40389         4.36013        -1.30654
C          8.64281         6.53008        -1.20415
C          7.36844         5.80384        -1.14327
C          8.64022         8.01136        -0.83238
C          7.36986         8.61129        -0.39761
C          8.64578        10.59312         0.32951
C          7.39193         9.93685         0.12403
C          8.66565        11.96570         0.87072
C          7.34578        12.69947         1.01250
C          8.59296        14.85901         1.17860
C          7.35969        14.16814         1.04170
C          8.57802        16.26613         1.33099
C          7.34911        16.98150         1.30017
C          8.59535        19.13306         1.25534
C          7.34284        18.42073         1.27278
C          8.60979        20.53889         1.07970
C          7.37553        21.25634         0.62008
C          8.52991        23.39434         1.29103
C          7.37606        22.71840         0.99995
C          8.51598        24.84064         1.75825
C          7.31178        25.62629         1.28675
C          8.54607        27.75702         1.46539
C          7.31832        27.03098         1.24562
C          8.52884        29.15023         1.48143
C          7.31959        29.86092         1.23863
C          8.51316        32.05726         1.03017
C          7.41115        31.29809         1.33073
C          8.41242        33.58284         0.87496
C          7.20853        34.11616         0.02317
C          8.69435        35.76571        -0.95170
C          7.37479        35.32308        -0.72012
C          8.70229        37.89046        -1.29168
C          7.37202        38.34120        -1.32246
C         11.11479         3.69247        -1.36513
C          9.88906         4.37855        -1.28900
C         11.10806         6.48673        -0.84680
C          9.90573         5.79605        -1.10383
C         11.09648         7.87717        -0.45937
C          9.91216         8.59778        -0.37772
C         11.13472        10.65426         0.28591
C          9.87852         9.94727         0.11524
C         11.10274        12.07702         0.48311
C          9.90732        12.76148         0.76320
C         11.07400        14.91451         1.13183
C          9.86295        14.15848         1.05118
C         11.09943        16.28168         1.40350
C          9.82555        16.98810         1.77647
C         11.04938        19.15190         1.36841
C          9.82750        18.44813         1.41685
C         11.03768        20.56188         1.33331
C          9.81649        21.25898         1.21474
C         11.00212        23.43495         1.23121
C          9.80318        22.70850         1.27589
C         10.97927        24.89239         1.24267
C          9.80539        25.56577         1.49075
C         11.05554        27.73973         1.38488
C          9.81382        27.02292         1.85273
C         11.08020        29.19999         1.53463
C          9.78374        29.94062         1.71531
C         11.06618        32.08774         1.07953
C          9.79199        31.48045         1.60601
C         11.02789        33.43366         0.68759
C          9.79007        34.11165         0.41090
C         11.14444        36.01457        -0.69855
C          9.85575        35.31032        -0.30995
C         11.08556        37.56634        -0.66622
C          9.86252        38.35162        -0.68029
C         13.57921         3.71494        -1.44491
C         12.34495         4.38523        -1.23980
C         13.59352         6.48152        -0.76099
C         12.34659         5.77904        -0.91688
C         13.62051         7.83594        -0.35553
C         12.34811         8.46029         0.15652
C         13.62311        10.64968         0.25494
C         12.35351         9.96664         0.15575
C         13.62530        12.02221         0.57696
C         12.38239        12.79266         0.50717
C         13.54534        14.87765         1.59317
C         12.37241        14.24947         0.85055
C         13.58940        16.35034         1.28320
C         12.33615        17.03208         1.35649
C         13.54270        19.16392         1.14424
C         12.32116        18.44272         1.34123
C         13.53996        20.58418         1.10025
C         12.31458        21.31538         1.57966
C         13.43835        23.45770         0.89002
C         12.25696        22.75800         1.15512
C         13.41471        24.90327         0.82130
C         12.22709        25.60732         1.05032
C         13.46818        27.77249         0.88625
C         12.22354        27.05368         1.08889
C         13.49961        29.19862         0.94718
C         12.30514        29.93528         1.17528
C         13.54973        32.04172         0.96364
C         12.30181        31.34568         1.09512
C         13.49120        33.53202         1.25317
C         12.28625        34.18546         0.56835
C         13.46765        36.41122         0.41413
C         12.31832        35.46436         0.09719
C         13.57795        37.50270        -0.68013
C         12.27205        38.23947        -0.69730
C         16.03740         3.73561        -1.63863
C         14.80193         4.40140        -1.37488
C         16.04950         6.50194        -0.95071
C         14.81347         5.79534        -1.03092
C         16.05948         7.88468        -0.64778
C         14.84748         8.56365        -0.32343
C         16.09821        10.78265        -0.25794
C         14.85103         9.95771         0.01450
C         16.15196        12.09344         0.49998
C         14.87417        12.71265         0.90977
C         16.10300        14.92807         1.16674
C         14.86801        14.14911         1.38522
C         16.06194        16.30671         1.00819
C         14.78948        17.02728         1.07229
C         15.97173        19.17326         0.68556
C         14.77410        18.45681         0.95580
C         15.93043        20.58855         0.54433
C         14.70634        21.30009         0.77687
C         15.83613        23.45273         0.30809
C         14.67981        22.74614         0.67702
C         15.81733        24.90223         0.26866
C         14.64269        25.61623         0.58523
C         15.91024        27.74980         0.53459
C         14.66106        27.04982         0.64049
C         15.94097        29.16555         0.65196
C         14.74525        29.89928         0.80097
C         16.02001        32.05909         0.67941
C         14.75231        31.34609         0.86036
C         16.03675        33.48668         0.62653
C         14.81619        34.24770         0.97308
C         16.02524        36.33715         0.08359
C         14.79904        35.70891         0.61071
C         15.99775        37.74977        -0.23210
C         14.76925        38.37722        -0.44305
C         18.51929         3.71602        -1.74180
C         17.25130         4.40000        -1.50365
C         18.52428         6.42220        -0.85061
C         17.27754         5.77972        -1.14368
C         18.56241         7.76407        -0.54073
C         17.35837         8.63275        -0.81962
C         18.54092        10.55941         0.25512
C         17.38578         9.99219        -0.15464
C         18.62417        11.95940         0.82220
C         17.31799        12.71307         0.79089
C         18.56454        14.86546         0.68088
C         17.39401        14.14363         1.31187
C         18.55277        16.33972         0.73508
C         17.27043        17.07211         0.78569
C         18.39818        19.19337         0.12196
C         17.22433        18.45490         0.55873
C         18.31976        20.60636        -0.09877
C         17.10674        21.31767         0.17477
C         18.21484        23.43287        -0.41194
C         17.05909        22.73344         0.03204
C         18.11402        24.90443        -0.73730
C         17.01745        25.62854        -0.00365
C         18.44674        27.65709         0.30863
C         17.09119        26.99786         0.22389
C         18.42331        29.15980         0.16826
C         17.26689        29.87635         0.81927
C         18.42263        32.03252         0.18178
C         17.21170        31.34829         0.49251
C         18.43749        33.45902         0.10603
C         17.22145        34.18371         0.31607
C         18.45764        36.31498        -0.15655
C         17.22356        35.62491         0.10525
C         18.45171        37.74230        -0.31156
C         17.23074        38.44291        -0.33942
C         19.69766         4.26684        -1.39872
C         21.00619         6.39039        -1.03749
C         19.77751         5.58313        -0.67149
C         21.05553         7.69843        -0.74795
C         19.85648         8.37664        -0.18070
C         21.03379        10.66968        -0.00157
C         19.85259         9.84220         0.22540
C         20.94643        12.04513        -0.10027
C         19.76037        12.74766         0.20380
C         20.73335        14.92652        -0.49017
C         19.67517        14.18230         0.17679
C         20.76326        16.27592        -0.54049
C         19.76229        17.09003         0.16192
C         20.69828        19.23127        -0.70968
C         19.60276        18.51995        -0.17740
C         20.63245        20.59589        -0.90642
C         19.45372        21.31574        -0.59472
C         20.50963        23.48782        -1.28686
C         19.38152        22.74421        -0.76888
C         20.54881        24.85199        -1.27485
C         19.44199        25.62146        -0.76874
C         20.70630        27.74554        -0.78990
C         19.52678        26.97299        -0.49745
C         20.73199        29.09685        -0.62855
C         19.57264        29.83726        -0.16227
C         20.80672        32.00101        -0.32342
C         19.62138        31.29869        -0.09225
C         20.83267        33.39757        -0.33121
C         19.66578        34.14797        -0.14740
C         20.88290        36.32760        -0.38502
C         19.68735        35.60656        -0.22232
C         20.87843        37.72757        -0.49733
C         19.68795        38.43104        -0.47383
O         10.53290        29.57035         2.92980
O          5.07793        26.19345        -0.63957
O         12.55443        13.90677        -0.54825
O          8.88113        36.66324        -2.00397
O         15.00164        13.07872         2.39365
O         19.62814        16.86171         1.59856
O         15.03884        35.28016         2.00930
O          8.02277        12.09411         2.18929
O          6.23102        31.93998         1.68521
O         19.99477         8.77104         1.23141
O         17.63863        14.07380         2.76253
H         16.81774        13.68207         3.14677
O          8.65189         7.58603        -2.23624
O         17.44062         8.94046        -2.28256
H         17.29555         8.09440        -2.76012
O          3.41174        27.99453         2.09522
H          2.58285        28.50054         2.23065
O          5.67333        24.64776         2.70093
H          6.51962        24.54889         3.20834
O          8.36963        24.74979         3.23002
H          8.79603        25.56457         3.60565
O          4.47381         6.18938        -2.55671
H          5.21244         5.96725        -3.16130
O          5.57632        29.54490        -1.34845
H          4.86455        29.67759        -2.01140
O         13.20284        14.78777         3.00399
H         13.68312        14.00366         3.36168
O          8.22321        34.16354         2.19266
H          8.76780        33.62642         2.81803
O         17.54103        29.81311         2.26823
H         17.83051        28.88535         2.45539
O         13.24015        33.59924         2.68445
H         13.80693        34.32281         3.04065
O         19.89826         5.26761         0.74858
H         19.93060         6.11899         1.23650
O         13.12069        37.08571         1.64538
H         13.49813        36.55214         2.38102
O         13.82523        36.84153        -1.95361
H         12.98809        36.38215        -2.22867
O          4.14196         5.89141         1.06929
H          3.43629         6.18250         1.68388
O         12.44903        21.36727         3.05341
H         13.27215        21.86137         3.25505
O         15.97403        11.18518        -1.66663
H         16.34068        10.44353        -2.21014
O          9.76832        16.95753         3.25814
H          9.99527        16.04590         3.54151
O          7.42842        21.22295        -0.87524
H          8.34446        21.46291        -1.13481
O         12.29563         8.06971         1.59026
H         11.50720         8.50531         1.97988
O         11.39761        35.65034        -2.10098
H         10.63583        36.01559        -2.61225
O         17.65959        24.93860        -2.14779
H         18.32510        24.44559        -2.67432
O         18.85167        27.43373         1.72935
H         19.77739        27.75100         1.81310
O          4.82172        16.92443         3.10252
H          4.92273        15.98353         3.36212
O         18.98240        11.80274         2.22717
H         18.78174        12.66309         2.67789
O          9.74462        31.97540         2.99762
H         10.34403        31.38546         3.51615
O          9.83988        27.03337         3.34021
H         10.03541        27.97350         3.59699
O          6.19571        23.66737        -0.79861
H          6.43026        22.79304        -1.19775
H          1.28037         2.48941        -1.36251
H         -0.89469         3.68550        -1.09135
H         -0.94717         6.08678        -0.54855
H         -0.93857         7.90360         0.04615
H         -0.97258        10.30150         0.42203
H         -1.00051        12.20061         0.49985
H         -1.01808        14.60536         0.80519
H         -1.02907        16.47845         1.00555
H         -1.02793        18.89649         1.13555
H         -1.03241        20.77187         1.07743
H         -1.03479        23.17301         0.71540
H         -0.97566        24.95811        -0.09135
H         -0.87209        27.28163        -0.79824
H         -0.67802        28.98158        -1.63914
H         -0.51869        31.20581        -2.59907
H         -0.32994        32.96030        -3.44775
H         -0.22334        35.31575        -4.13568
H          0.94906        37.51957        -4.15585
H          3.74747         2.49066        -1.21726
H          2.91410        38.90685        -3.55744
H          6.20707         2.54106        -1.35560
H          5.14186        39.10808        -2.45859
H          8.64321         2.60711        -1.54398
H          7.14075        39.39937        -1.13208
H         11.12260         2.61028        -1.56074
H          9.89281        39.36171        -0.24645
H         13.57287         2.64381        -1.69583
H         12.27424        39.33990        -0.74271
H         16.02167         2.67228        -1.91962
H         14.71917        39.45879        -0.63822
H         18.48370         2.71948        -2.20824
H         17.22802        39.52891        -0.51288
H         20.63752         3.71997        -1.56945
H         21.88622         5.87095        -1.44687
H         21.97340         8.27981        -0.92025
H         22.01231        10.18212        -0.11172
H         21.86238        12.59997        -0.34975
H         21.49854        14.36495        -1.04247
H         21.51918        16.77329        -1.16418
H         21.63823        18.70840        -0.92985
H         21.52168        21.11396        -1.28621
H         21.39269        22.94557        -1.64847
H         21.47353        25.35652        -1.58717
H         21.58782        27.24730        -1.21578
H         21.64446        29.63990        -0.90490
H         21.74881        31.46837        -0.50561
H         21.79243        33.89689        -0.51686
H         21.84786        35.80522        -0.42330
H         21.83146        38.26111        -0.61908
H         19.68167        39.52480        -0.58338
