         204
 CSIRO Nanostructure Databank - Neutral Graphene Oxide Data Set
C        -11.02971         0.62028        -0.22212
C         -9.82569         1.39860        -0.10042
C         -8.58808         0.70325         0.11506
C         -7.37123         1.42790         0.21737
C         -6.12863         0.72663         0.35643
C         -4.90228         1.44479         0.31915
C         -3.65655         0.73713         0.28694
C         -2.44147         1.46055         0.16106
C         -1.13780         0.73412         0.35589
C          0.06153         1.46428        -0.18236
C          1.25812         0.74710        -0.40368
C          2.48896         1.45691        -0.57989
C          3.73154         0.75517        -0.66959
C          4.94348         1.47731        -0.66829
C          6.23106         0.74747        -0.96106
C          7.48835         1.49465        -0.52354
C          8.68613         0.73831        -0.03143
C          9.77351         1.46406         0.66503
C         10.88695         0.65139         1.14103
C         -9.82769         2.79528        -0.18600
C         -8.62706         3.54585        -0.05373
C         -7.38743         2.85124         0.14793
C         -6.17342         3.58658         0.28811
C         -4.90866         2.87266         0.33140
C         -3.68259         3.56188         0.28086
C         -2.44745         2.86724         0.10860
C         -1.21898         3.61111        -0.09715
C          0.02818         2.87830        -0.29927
C          1.22351         3.56855        -0.60343
C          2.47754         2.88152        -0.64364
C          3.72273         3.58500        -0.69315
C          4.95110         2.89739        -0.62540
C          6.20337         3.63262        -0.38599
C          7.41905         2.93010        -0.20167
C          8.56991         3.59216         0.31107
C          9.73355         2.82993         0.73134
C         -8.62576         4.96067        -0.13980
C         -7.43796         5.69716         0.00699
C         -6.21770         4.99404         0.25719
C         -4.99880         5.76800         0.49449
C         -3.65769         5.01290         0.49391
C         -2.46187         5.76792         0.11553
C         -1.24593         5.01855        -0.14190
C         -0.04232         5.76174        -0.33444
C          1.18022         5.03441        -0.70601
C          2.45321         5.80863        -0.74801
C          3.74309         5.05313        -0.82271
C          5.00470         5.80748        -0.52086
C          6.20600         5.03101        -0.19389
C          7.37751         5.73315         0.20657
C          8.54011         4.98897         0.49398
C         -7.41808         7.13494        -0.07232
C         -6.23509         7.86889        -0.01552
C         -4.97714         7.19678         0.17673
C         -3.75922         7.87320         0.06979
C         -2.51715         7.14774        -0.00443
C         -1.31857         7.90211        -0.52342
C         -0.02657         7.16746        -0.30061
C          1.18093         7.89492        -0.19874
C          2.44636         7.11307         0.02173
C          3.72454         7.90600        -0.08241
C          4.93410         7.23679        -0.13631
C          6.17364         7.91178         0.15896
C          7.34413         7.17035         0.32083
C         -6.20247         9.30788        -0.13821
C         -5.02056         9.99522        -0.11802
C         -3.74881         9.32109        -0.05319
C         -2.54442        10.02411        -0.03834
C         -1.28322         9.35494        -0.10759
C         -0.06884        10.00611         0.01938
C          1.18953         9.30127        -0.02927
C          2.42862         9.98404         0.16106
C          3.66837         9.32594         0.13458
C          4.92092        10.01579         0.30755
C          6.11189         9.33985         0.34956
C        -11.01249        -0.74674        -0.11353
C         -9.79835        -1.46449         0.14596
C         -8.57846        -0.71404         0.25191
C         -7.35574        -1.38000         0.51988
C         -6.12300        -0.69025         0.52087
C         -4.86241        -1.40846         0.54311
C         -3.64940        -0.69387         0.33110
C         -2.41880        -1.41883         0.10003
C         -1.19190        -0.71857        -0.03027
C          0.01894        -1.40889        -0.28091
C          1.25788        -0.69456        -0.42691
C          2.47315        -1.40813        -0.65675
C          3.73115        -0.69446        -0.73871
C          4.95976        -1.38928        -0.72743
C          6.20124        -0.71302        -0.54878
C          7.36507        -1.43328        -0.24834
C          8.55965        -0.71805         0.34030
C          9.90195        -1.42224         0.11745
C         10.96566        -0.67959         0.90833
C         -9.78011        -2.87378         0.25578
C         -8.61624        -3.58017         0.60088
C         -7.39860        -2.79795         0.88634
C         -6.06306        -3.53468         1.01568
C         -4.84026        -2.82445         0.63569
C         -3.67002        -3.55841         0.23734
C         -2.45270        -2.83103        -0.04799
C         -1.23510        -3.54999        -0.29438
C         -0.00016        -2.83585        -0.36742
C          1.22508        -3.54752        -0.51167
C          2.43894        -2.82924        -0.68496
C          3.66677        -3.60226        -0.89976
C          5.00022        -2.85022        -0.87272
C          6.20046        -3.59075        -0.45751
C          7.37238        -2.85828        -0.15747
C          8.59297        -3.57233         0.20161
C          9.78340        -2.88868         0.43971
C         -8.56596        -4.99832         0.63058
C         -7.38196        -5.72883         0.79809
C         -6.09703        -5.02937         0.99022
C         -4.82623        -5.74912         0.57557
C         -3.68350        -4.95647         0.12224
C         -2.58968        -5.62667        -0.67373
C         -1.24643        -4.96309        -0.42834
C         -0.02524        -5.68559        -0.45608
C          1.21627        -4.98047        -0.48229
C          2.44653        -5.71328        -0.44949
C          3.68299        -5.03221        -0.56744
C          4.91193        -5.71796        -0.41924
C          6.15571        -4.99971        -0.33355
C          7.36264        -5.71206         0.00655
C          8.53960        -4.99969         0.26554
C         -7.35807        -7.15051         0.66911
C         -6.18386        -7.87013         0.43693
C         -4.92679        -7.18579         0.24198
C         -3.78662        -7.87208        -0.10560
C         -2.56427        -7.14457        -0.51705
C         -1.27011        -7.87932        -0.42063
C         -0.00036        -7.12086        -0.38149
C          1.19233        -7.83374        -0.27830
C          2.44116        -7.13472        -0.31714
C          3.67053        -7.84219        -0.24692
C          4.89740        -7.13872        -0.24403
C          6.13855        -7.84775        -0.05881
C          7.32660        -7.14117         0.08104
C         -6.19109        -9.30039         0.23742
C         -5.04611        -9.99476        -0.02874
C         -3.76409        -9.32455        -0.11647
C         -2.56158        -9.99989        -0.08511
C         -1.28583        -9.25378         0.21944
C          0.00083        -9.98996        -0.04683
C          1.18453        -9.29725        -0.17478
C          2.45537        -9.97781        -0.16421
C          3.65565        -9.28972        -0.15935
C          4.92318        -9.97606        -0.04935
C          6.09896        -9.29092         0.01807
O         -2.90370        -5.36636        -2.08302
H         -2.43564        -6.06588        -2.59655
O         10.22678        -1.31253        -1.29598
H         11.06564        -1.79228        -1.45422
O         -0.93316         0.71973         1.82922
H         -1.71215         0.27168         2.22417
O         -1.30778        -8.99088         1.67112
H         -1.28903        -9.85546         2.13280
O          8.59787         1.11657        -1.43236
O         -4.29562         5.43126         1.74213
O          4.57366         5.55594        -1.92210
O          1.70700         5.68052        -1.97188
O         -6.76688        -3.02767         2.19409
O          6.26997         0.69290        -2.42143
H          7.21801         0.57177        -2.66606
O         -1.49744         7.92670        -1.99022
H         -0.64636         8.21473        -2.38426
O          8.30804        -0.71150         1.77670
H          8.34082        -1.64236         2.08567
O          4.40004        -3.29991        -2.13546
O          2.41302         6.66596         1.43101
H          2.36392         7.46819         1.99370
O         -1.95695        -7.79048        -1.71064
O         -5.19735        -5.57207         2.00377
H         11.84713        -1.24239         1.25530
H         11.69904         1.16282         1.68200
H         10.57008         3.38313         1.18581
H          9.44015         5.50556         0.85911
H          8.27733         7.69149         0.58342
H          7.04819         9.88648         0.53574
H          4.90352        11.10631         0.45201
H          2.40760        11.07328         0.31670
H         -0.05171        11.08780         0.22559
H         -2.56235        11.12401         0.01814
H         -5.02410        11.09290        -0.19496
H         -7.15549         9.84890        -0.23310
H         -8.37201         7.66224        -0.22356
H         -9.57387         5.48913        -0.31924
H        -10.77623         3.32833        -0.35006
H        -11.97840         1.14589        -0.40538
H        -11.94827        -1.31699        -0.20991
H        -10.71116        -3.43361         0.07858
H         -9.49761        -5.55155         0.43480
H         -8.31856        -7.68877         0.66650
H         -7.14832        -9.83465         0.33128
H         -5.07364       -11.09000        -0.12749
H         -2.55545       -11.10069        -0.04048
H          0.01827       -11.08691         0.05293
H          2.45910       -11.07637        -0.09495
H          4.91822       -11.07481         0.00590
H          7.04994        -9.83286         0.12903
H          8.26339        -7.68502         0.27598
H          9.45793        -5.55102         0.51765
H         10.69883        -3.46475         0.64999
