         429
 CSIRO Nanostructure Databank - Neutral Graphene Oxide Data Set
C          1.23983         2.65700         1.17224
C          1.28705         4.01263         0.77794
C          2.37822         1.88006         1.14263
C          2.46749         4.59016         0.32391
C          1.28692         6.61395        -0.67090
C          1.27776         7.72329        -1.42232
C          2.52995         6.07376         0.00514
C          2.52976         8.43690        -1.80350
C          1.33054        10.66762        -1.55900
C          1.35305        12.02809        -1.46200
C          2.49673         9.93012        -2.16353
C          2.52198        12.78688        -1.77820
C          1.16814        14.93908        -1.43509
C          1.10970        16.09056        -0.75565
C          2.45743        14.30699        -1.90656
C          2.31515        16.78999        -0.18559
C          2.34433        18.27858        -0.45328
C          3.61795         2.43892         0.71943
C          3.66037         3.80704         0.29779
C          4.80642         1.67117         0.75555
C          4.91010         4.35743        -0.13968
C          3.79183         6.45516        -0.74051
C          3.80774         7.75726        -1.46291
C          4.93065         5.71168        -0.69477
C          5.09066         8.50364        -1.43512
C          3.79186        10.68016        -1.87447
C          3.75691        12.07874        -1.90891
C          5.06420        10.01891        -1.39367
C          5.03058        12.85959        -1.98309
C          3.67516        14.95966        -1.25898
C          3.61573        16.14919        -0.61372
C          4.97475        14.30173        -1.57220
C          4.85242        16.87463        -0.11853
C          3.49350        18.99320        -0.44344
C          4.80188        18.38569        -0.28072
C          6.04306         2.21959         0.38678
C          6.06519         3.56764        -0.11231
C          7.25595         1.46390         0.59434
C          7.35646         4.14913        -0.51966
C          6.20060         6.25864        -1.33262
C          6.23501         7.78408        -1.31978
C          7.44802         5.62730        -0.72261
C          7.56031         8.43389        -1.44316
C          6.35017        10.65630        -1.92232
C          6.42069        12.18661        -2.02433
C          7.61818         9.92435        -1.61393
C          7.46805        12.77823        -1.08846
C          6.19606        14.87650        -0.98663
C          6.11114        16.33148        -0.74561
C          7.36082        14.16657        -0.77161
C          7.35907        17.10778        -0.56250
C          5.95746        19.12770        -0.19998
C          7.28048        18.52901        -0.15856
C          8.52016         2.01407         0.43024
C          8.59253         3.36880        -0.17253
C          9.74357         1.33152         0.72802
C          9.81661         4.15605         0.11615
C          8.64588         6.27072        -0.66824
C          8.80541         7.68637        -1.10531
C          9.91579         5.53600        -0.44626
C         10.00482         8.46945        -0.69335
C          8.79097        10.65674        -1.08043
C          8.65900        12.05023        -0.80289
C          9.94866         9.89772        -0.64251
C          9.77378        12.76757        -0.19013
C          8.46003        14.87993        -0.01545
C          8.59484        16.35455        -0.33229
C          9.76343        14.14036        -0.00661
C          9.74771        17.05099        -0.03579
C          8.46613        19.20313         0.02178
C          9.74401        18.51432        -0.00661
C         11.00917         1.94693         0.69380
C         11.04565         3.42258         0.50830
C         12.22544         1.26489         0.95166
C         12.34576         4.12090         0.30875
C         11.18322         6.30485        -0.21963
C         11.14067         7.78824        -0.20212
C         12.35562         5.60888         0.36899
C         12.26765         8.48298         0.27203
C         11.06339        10.57710        -0.07104
C         10.92809        11.99294         0.28167
C         12.24282         9.89596         0.31902
C         12.17555        12.75011         0.76759
C         10.96495        14.88207         0.31309
C         10.97518        16.33860         0.23195
C         12.14448        14.20468         0.59790
C         12.17654        17.06102         0.28360
C         10.94902        19.19544         0.05310
C         12.20901        18.50109         0.10980
C         13.48809         1.91017         1.02157
C         13.55414         3.36740         0.71897
C         14.71127         1.23774         1.17471
C         14.70017         4.15460         1.23831
C         13.48257         6.29788         0.72024
C         13.40049         7.77802         0.98529
C         14.73368         5.62918         1.04156
C         14.72544         8.48628         0.84294
C         13.46305        10.61824         0.66141
C         13.46827        12.02658         0.75666
C         14.70702         9.91003         0.76066
C         14.68978        12.73211         0.81543
C         13.38321        14.95149         0.80134
C         13.41670        16.36846         0.42553
C         14.69243        14.20548         0.95303
C         14.63302        17.00763         0.19731
C         13.43903        19.16045         0.08743
C         14.69331        18.46281         0.18892
C         15.97558         1.91718         1.20733
C         15.95984         3.38752         1.43709
C         17.20233         1.27078         1.13883
C         17.19785         4.18501         1.23046
C         15.90584         6.33958         1.19633
C         15.92673         7.78495         1.01946
C         17.17112         5.64157         1.67397
C         17.17991         8.48652         1.02978
C         15.93902        10.62536         0.79195
C         15.92889        12.05220         0.75661
C         17.18039         9.90903         0.88670
C         17.16815        12.79182         0.75933
C         15.91430        14.90661         0.51205
C         15.80887        16.19010        -0.01269
C         17.17806        14.21849         0.66836
C         17.26803        17.25330         1.57335
C         15.89542        19.15112         0.39936
C         17.16270        18.58579         0.83403
C         18.47380         1.96288         1.22652
C         18.47913         3.44573         1.12774
C         19.66392         1.31031         1.38322
C         19.72995         4.20436         1.32086
C         18.45422         6.35715         1.30464
C         18.42374         7.77230         1.14685
C         19.67620         5.65219         1.27367
C         19.65560         8.49243         1.06789
C         18.40407        10.63194         0.85853
C         18.39633        12.07661         0.79669
C         19.64464         9.91913         0.92639
C         19.60393        12.80667         0.75050
C         18.38275        14.94828         0.85866
C         18.43941        16.39928         1.09914
C         19.61596        14.22375         0.82812
C         19.60519        17.09584         0.97734
C         18.35833        19.22393         0.66140
C         19.60857        18.60242         1.25261
C         20.95131         2.03410         1.69121
C         20.92110         3.51712         1.37980
C         22.18771         1.37114         1.14440
C         22.17229         4.22728         1.30791
C         20.92086         6.36575         1.20774
C         20.89910         7.79382         1.11864
C         22.15988         5.66792         1.23133
C         22.12856         8.51050         1.04106
C         20.86995        10.62137         0.84388
C         20.86624        12.06947         0.43287
C         22.10126         9.93607         0.92083
C         22.10322        12.80609         0.84204
C         20.86931        14.92827         0.88435
C         20.91757        16.42363         0.65547
C         22.07227        14.20994         0.97043
C         22.05325        17.15918         1.42608
C         20.90551        19.25113         0.81726
C         22.10591        18.59824         0.94408
C         23.37413         2.07117         1.04502
C         23.37261         3.51352         1.23409
C         24.59884         1.41098         0.63802
C         24.64553         4.24342         1.27057
C         23.39479         6.38537         1.12696
C         23.37289         7.81057         1.02636
C         24.64501         5.70357         1.11096
C         24.59962         8.51791         0.86945
C         23.33845        10.65665         0.82227
C         23.33042        12.09176         0.81827
C         24.56335         9.94124         0.74792
C         24.55371        12.80517         0.69469
C         23.35918        14.92348         1.15246
C         23.38890        16.42325         1.30424
C         24.58360        14.23830         0.71447
C         24.62795        17.12437         0.91816
C         23.37061        19.23007         0.68920
C         24.60359        18.56440         0.71584
C         25.80259         2.07124         0.49255
C         25.92347         3.48870         0.89696
C         27.00277         1.43360         0.04157
C         27.08264         4.27498         0.45484
C         25.87202         6.38737         0.92279
C         25.85344         7.82759         0.81182
C         27.08401         5.66214         0.63794
C         27.03906         8.55262         0.52760
C         25.76729        10.64852         0.47798
C         25.74563        12.06896         0.45810
C         26.99372         9.94226         0.27888
C         26.90125        12.76617         0.04274
C         25.76290        14.97000         0.56083
C         25.79976        16.39686         0.71984
C         27.01847        14.21421         0.33233
C         27.13432        17.11720         0.83772
C         25.83983        19.24607         0.46206
C         27.08075        18.59287         0.47796
C         28.18084         2.13605        -0.17592
C         28.23076         3.59110        -0.06663
C         29.42091         1.43567        -0.38535
C         29.39313         4.29524        -0.42327
C         28.37028         6.37029         0.47827
C         28.35538         7.90822         0.44651
C         29.50415         5.69891        -0.18539
C         29.51508         8.62406        -0.12355
C         28.14664        10.64120        -0.21473
C         27.90931        11.99672        -0.54010
C         29.45363        10.02774        -0.34851
C         29.76025        13.09296        -0.62945
C         28.31632        14.95599         0.25586
C         28.26840        16.45014         0.04388
C         29.61931        14.30946        -0.04960
C         29.59832        17.11638         0.33721
C         28.32053        19.24601         0.29992
C         29.58162        18.56117         0.34414
C         30.59250         2.09973        -0.66052
C         30.53118         3.54458        -1.09686
C         31.85103         1.41982        -0.59076
C         31.83497         4.27620        -0.94029
C         30.65209         6.45040        -0.50955
C         30.69656         7.87793        -0.40263
C         31.79019         5.75681        -1.23265
C         31.92467         8.60476        -0.62264
C         30.71214        10.76801        -0.45060
C         30.84435        12.18409        -0.37945
C         31.94841        10.02091        -0.45327
C         32.05985        12.83662        -0.00922
C         30.77836        14.91073         0.68223
C         30.78337        16.41013         0.46582
C         32.07382        14.21542         0.33401
C         32.04702        17.08151         0.55357
C         30.81906        19.23108         0.39345
C         32.05292        18.53042         0.48756
C         33.07148         2.04136        -0.72804
C         33.09359         3.54260        -0.85782
C         34.28519         1.29561        -0.39717
C         34.32294         4.34871        -1.26250
C         33.11447         6.48915        -1.16527
C         33.13828         7.92543        -0.94815
C         34.26669         5.81329        -1.45839
C         34.36492         8.61387        -0.96131
C         33.20888        10.68873        -0.34194
C         33.27099        12.09277        -0.04328
C         34.42598         9.97037        -0.55359
C         34.48462        12.76140         0.21536
C         33.28336        14.90274         0.54569
C         33.24299        16.33999         0.68847
C         34.52886        14.16305         0.47248
C         34.49673        17.07565         0.88700
C         33.28837        19.21465         0.49200
C         34.51938        18.53161         0.62628
C         35.49569         1.57704        -0.98622
C         35.55209         3.67427        -1.72373
C         36.84497         1.24698        -0.63796
C         36.78002         4.22340        -1.55974
C         35.56697         6.50085        -1.71426
C         35.60413         8.02513        -1.59368
C         36.84807         5.70906        -1.65491
C         36.91260         8.56705        -1.04317
C         35.69530        10.60388        -0.34292
C         35.71177        11.95596         0.23369
C         36.92052         9.93772        -0.60323
C         37.04669        12.71327         0.27769
C         35.78490        14.84504         0.51207
C         35.82444        16.29499         0.76638
C         37.00735        14.18458         0.25027
C         37.02567        17.04282         0.38459
C         35.75193        19.18116         0.52073
C         36.98945        18.47508         0.38187
C         37.97596         1.97670        -1.02322
C         38.00876         3.37837        -1.56637
C         39.24350         1.36740        -0.73349
C         39.31541         4.16824        -1.41609
C         38.12285         6.39713        -1.36324
C         38.11294         7.82431        -1.13703
C         39.29790         5.65521        -1.26778
C         39.37936         8.48243        -0.97763
C         38.16868        10.65158        -0.50787
C         38.23537        12.00614        -0.20662
C         39.42487         9.99274        -1.03666
C         39.45973        12.76958        -0.35079
C         38.20662        14.90140        -0.00462
C         38.19973        16.34331         0.03123
C         39.43195        14.19827        -0.28808
C         39.40534        17.07121        -0.23081
C         38.17645        19.17986         0.10412
C         39.38297        18.50281        -0.18320
C         40.43784         2.04856        -0.71419
C         40.50631         3.45524        -0.90934
C         41.67040         4.17281        -0.63301
C         40.54615         6.32181        -0.99427
C         40.56895         7.76587        -0.97192
C         41.70396         5.56990        -0.72531
C         41.83715         8.49515        -0.96845
C         40.65408        10.57110        -0.33013
C         40.68527        12.08030        -0.51840
C         41.89924         9.82006        -0.73460
C         41.86085        12.81517        -0.69046
C         40.64128        14.92695        -0.51135
C         40.62582        16.38792        -0.50401
C         41.83171        14.21096        -0.72404
C         41.78249        17.14658        -0.75040
C         40.57980        19.22675        -0.44191
C         41.75346        18.55032        -0.72441
O         36.47340        12.10566         1.47937
O          3.24832         7.66831        -2.84134
O         14.00264        14.70376         2.13930
O         10.85758         5.71258        -1.54367
O         11.20112        12.22543         1.71652
O         28.74283        12.61976        -1.46463
O         13.25129         3.59026        -0.71175
O         16.58760        16.97467         2.53752
O          7.08594        10.09331        -3.02595
O         35.40938         2.36498        -2.15537
O         15.14007         3.76940         2.59683
O         17.76014         3.94554        -0.08764
O          5.02347        13.91429        -2.99955
O         23.56985        15.55094         2.48246
O         38.86946         3.62670        -2.71432
O         34.06006         4.07964         0.17812
O         28.72893         7.15827         1.65496
O          6.67936        17.00657        -1.91229
O         25.57139         3.73828         2.29761
O         35.25683        16.67794         2.06974
O          8.11932         3.41072        -1.54973
O         10.21358         4.11449         1.52552
O         36.22690         6.10162        -2.96889
O         27.87270        14.46523         1.55403
O          8.38700         7.81524        -2.51233
O         21.69324        17.18651         2.82439
H         22.19103        16.45056         3.26049
O         16.77358        16.64558        -0.87004
H         16.52977        17.53730        -1.19416
O         27.51133        17.04396         2.23506
H         26.72269        17.24090         2.78132
O         40.46128        10.33857         1.09290
H         41.21384        10.73993         1.57438
O         13.05914         7.86648         2.41770
H         13.06304         8.81627         2.66526
O         30.58399        14.69519         2.11339
H         31.26222        15.21721         2.59103
O         30.20380         3.49755        -2.53304
H         30.34699         4.41513        -2.87828
O         20.92226        12.03618        -1.06232
H         21.71842        11.51552        -1.30515
O         17.11742         5.64176         3.12959
H         16.30923         5.13243         3.38365
O          5.13506        10.36355         0.04497
H          4.31951        10.03493         0.48052
O          2.22827        16.64687         1.28081
H          1.99884        15.71244         1.47108
O         21.22264        16.60879        -0.76026
H         20.54302        16.12788        -1.27847
O          4.96958        16.60423         1.30636
H          4.07831        16.78325         1.69693
O          8.00707        14.86257         1.38887
H          8.76817        15.11448         1.95481
O         31.41687         5.89527        -2.68482
H         32.22088         5.70339        -3.21565
O         35.57041         8.55525        -2.96380
H         36.00220         7.86673        -3.52686
O          2.60648         6.77424         1.29952
H          3.20984         6.26192         1.87854
O         21.08783         1.95012         3.16344
H         21.94760         2.36004         3.40037
O          6.21182         5.85634        -2.72198
H          7.00204         6.27632        -3.13381
O          2.49791        14.60790        -3.32875
H          3.39997        14.35105        -3.64902
O          6.97643        12.52886        -3.31589
H          7.38992        11.70681        -3.67973
O         19.49864        18.78672         2.69338
H         20.25279        18.29229         3.10035
O         28.00118        16.62832        -1.37226
H         28.03123        17.59020        -1.56549
O          2.29878         9.98155        -3.61279
H          2.82077         9.23363        -3.98738
O         39.53637        10.35157        -2.44406
H         38.76768         9.96578        -2.91467
H          0.28662         2.22986         1.51317
H          0.36757         4.61037         0.84445
H          2.34570         0.82776         1.45915
H          0.33325         6.10162        -0.47459
H          0.33289         8.07025        -1.86823
H          0.40688        10.11791        -1.32971
H          0.45115        12.55510        -1.11800
H          0.23336        14.50568        -1.82275
H          0.12945        16.53848        -0.52532
H          1.38190        18.79281        -0.59624
H          4.76075         0.63450         1.12117
H          3.45490        20.08366        -0.59618
H          7.15765         0.44452         0.99788
H          5.88904        20.22780        -0.20453
H          9.68340         0.26791         1.00688
H          8.46523        20.28641         0.21753
H         12.18674         0.17669         1.11485
H         10.95242        20.29597         0.05550
H         14.71096         0.13778         1.22449
H         13.45637        20.26010         0.04130
H         17.22386         0.17330         1.05385
H         15.86379        20.24983         0.30792
H         19.67608         0.21180         1.46017
H         18.41889        20.20064         0.15440
H         22.18115         0.28252         0.98249
H         20.88762        20.30728         0.50371
H         24.54180         0.33986         0.39148
H         23.36223        20.30491         0.44888
H         26.99473         0.34281        -0.10445
H         25.80426        20.32793         0.25891
H         29.44163         0.35123        -0.19471
H         28.32926        20.34179         0.18556
H         31.83081         0.34281        -0.36136
H         30.83909        20.33134         0.38234
H         34.21483         0.52177         0.38259
H         33.29796        20.30785         0.36699
H         37.01441         0.34292        -0.03078
H         35.76767        20.27539         0.40502
H         39.24018         0.30047        -0.46514
H         38.16303        20.27985         0.09847
H         41.36056         1.51411        -0.44443
H         42.57292         3.62953        -0.31743
H         42.64717         6.08469        -0.50044
H         42.76021         7.94335        -1.19732
H         42.87665        10.32492        -0.72903
H         42.82577        12.30543        -0.81820
H         42.77601        14.74469        -0.89329
H         42.73743        16.65098        -0.96940
H         40.56076        20.32539        -0.41123
H         42.67713        19.11097        -0.92458
