         424
 CSIRO Nanostructure Databank - Neutral Graphene Oxide Data Set
C          1.23885         3.34307         0.10593
C          0.05847         4.04009         0.14098
C          1.16679         6.19830        -0.21478
C          0.02734         5.46803         0.02171
C          1.18383         7.65072        -0.35767
C         -0.04180         8.39366        -0.35966
C          1.13107        10.53244        -0.52503
C         -0.05367         9.77653        -0.39071
C          1.14304        11.95405        -0.50972
C         -0.05425        12.70457        -0.32790
C          1.16397        14.81111        -0.48350
C         -0.04131        14.07857        -0.29846
C          1.17839        16.25513        -0.42829
C         -0.01083        17.00017        -0.21680
C          1.15674        19.14638        -0.06379
C         -0.01643        18.37882        -0.00491
C          1.20122        20.55415         0.16195
C          0.01378        21.30699         0.38990
C          1.28120        23.39308         0.55464
C          0.04894        22.67093         0.55730
C          1.30442        24.84725         0.70891
C          0.13471        25.56290         0.98243
C          1.28560        27.69747         0.73754
C          0.12639        26.95770         1.00836
C          1.26809        29.15302         0.72219
C          0.06902        29.85966         0.96525
C          1.20047        31.99174         0.71786
C          0.03643        31.24617         0.95634
C          1.13917        33.47077         0.63166
C         -0.03433        34.25213         1.04650
C          1.30912        36.29860         1.27159
C          0.04245        35.60198         1.20734
C          1.36581        37.72066         1.57114
C          3.69376         3.36630         0.03153
C          2.48752         4.02591        -0.07146
C          3.67052         6.25166        -0.16951
C          2.44915         5.46398        -0.54020
C          3.65451         7.64112        -0.26277
C          2.39837         8.33900        -0.46305
C          3.63718        10.57330        -0.48966
C          2.40431         9.79487        -0.86873
C          3.64059        11.94383        -0.60157
C          2.37583        12.67871        -0.67102
C          3.62442        14.82381        -1.07776
C          2.37095        14.08108        -0.68134
C          3.63842        16.27268        -0.64492
C          2.42510        16.95458        -0.48034
C          3.65728        19.11432        -0.03073
C          2.40580        18.46553        -0.56820
C          3.68113        20.59078        -0.00143
C          2.45493        21.27612         0.15194
C          3.79467        23.39253         0.57779
C          2.47244        22.69293         0.35423
C          3.75439        24.87427         0.30152
C          2.52408        25.56795         0.50246
C          3.71463        27.71822         0.24689
C          2.50620        26.99622         0.48786
C          3.70434        29.15747         0.24615
C          2.46162        29.87788         0.47628
C          3.67611        32.04093         0.42898
C          2.43540        31.31281         0.49947
C          3.73365        33.41222         0.71050
C          2.48893        34.20825         0.68265
C          3.76666        36.17497         1.67881
C          2.48742        35.58764         1.15881
C          3.81692        37.68217         1.59463
C          2.55395        38.38339         1.66492
C          6.15881         3.42518         0.02478
C          4.94285         4.07129         0.04953
C          6.16167         6.28124         0.04202
C          4.88633         5.54959         0.35484
C          6.11808         7.70394        -0.05979
C          4.87741         8.38469        -0.13506
C          6.14272        10.57548        -0.26057
C          4.84644         9.87267         0.06649
C          6.12893        11.99587        -0.41660
C          4.89799        12.69228        -0.54937
C          6.11655        14.81071        -0.82407
C          4.90774        14.09553        -0.74835
C          6.10728        16.26276        -0.82779
C          4.88844        16.94361        -0.60918
C          6.15826        19.14047        -0.47581
C          4.93830        18.36383        -0.19778
C          6.11488        20.52591        -0.48319
C          4.92634        21.28180        -0.12841
C          6.17314        23.43755        -0.31541
C          4.97614        22.68524        -0.03328
C          6.16886        24.86755        -0.27746
C          4.93304        25.57548         0.01682
C          6.13414        27.73014        -0.26202
C          4.92152        27.01244        -0.01317
C          6.12808        29.15752        -0.21520
C          4.90136        29.84728         0.02497
C          6.20444        31.96070         0.24083
C          4.88974        31.34356        -0.12950
C          6.26389        33.31313         0.90132
C          4.96712        34.10067         0.88160
C          6.21943        36.19884         1.21302
C          5.00345        35.48360         1.15926
C          6.27739        37.60206         1.46699
C          5.02780        38.32523         1.60563
C          8.62023         3.45644         0.10751
C          7.40864         4.13298         0.12067
C          8.60247         6.32378         0.09255
C          7.38219         5.59540         0.11217
C          8.57191         7.71468        -0.06298
C          7.35238         8.43078        -0.12795
C          8.60743        10.59671        -0.22660
C          7.34780         9.86875        -0.24495
C          8.59877        12.04275        -0.32143
C          7.37380        12.71745        -0.48508
C          8.60260        14.82485        -0.86769
C          7.37735        14.13041        -0.72297
C          8.57478        16.23788        -1.38527
C          7.33465        16.98353        -0.91501
C          8.56489        19.08331        -1.07405
C          7.35027        18.39045        -0.82053
C          8.56244        20.55667        -1.18292
C          7.28717        21.29738        -0.92904
C          8.52709        23.47093        -1.04168
C          7.35263        22.75969        -0.70734
C          8.50819        24.87267        -1.02826
C          7.33902        25.58334        -0.64218
C          8.51229        27.77619        -0.86602
C          7.33812        27.03965        -0.59886
C          8.55764        29.18801        -0.64721
C          7.35620        29.87903        -0.36178
C          8.65409        32.01982        -0.04276
C          7.37521        31.30398        -0.06011
C          8.68605        33.39347         0.19124
C          7.37743        34.14792         0.27158
C          8.77353        36.17948         1.03980
C          7.47491        35.45451         1.01993
C          8.75103        37.64821         1.19030
C          7.50971        38.28571         1.45610
C         11.08458         3.46361         0.15099
C          9.87883         4.13277         0.18607
C         11.15238         6.29079         0.03863
C          9.87844         5.61426         0.48707
C         11.13115         7.74016        -0.25910
C          9.83128         8.46156        -0.26174
C         11.05237        10.64671         0.29460
C          9.80614         9.92214        -0.11960
C         11.05905        12.09264        -0.12466
C          9.83633        12.76609        -0.34727
C         11.07792        14.90456        -0.67675
C          9.83809        14.17454        -0.65324
C         11.11019        16.30422        -1.03680
C          9.88856        16.99473        -1.25073
C         10.84792        19.28728        -1.80094
C          9.76391        18.41875        -1.38005
C         11.03562        20.58827        -1.45839
C          9.84498        21.33085        -0.91024
C         11.09026        23.43719        -1.27515
C          9.76738        22.72683        -1.53540
C         10.99912        24.91326        -0.92288
C          9.74270        25.56396        -1.56735
C         11.02371        27.82803        -1.30041
C          9.71855        27.08956        -1.38595
C         11.03848        29.24087        -0.87427
C          9.82756        29.91121        -0.65521
C         11.07788        32.04244        -0.48851
C          9.86515        31.32231        -0.37470
C         11.11147        33.46533        -0.26098
C          9.90897        34.13166         0.13684
C         11.13708        36.25235         0.31521
C          9.95114        35.51777         0.44705
C         11.15488        37.66720         0.62160
C          9.94828        38.33704         1.00598
C         13.55142         3.51640         0.36513
C         12.34681         4.16455         0.19674
C         13.62841         6.31499        -0.33160
C         12.33030         5.61499         0.01416
C         13.58524         7.80446        -0.07350
C         12.39592         8.49956        -0.07661
C         13.54137        10.66791         0.11760
C         12.34466         9.92751         0.01160
C         13.50115        12.11112         0.16760
C         12.27358        12.80706        -0.07415
C         13.47554        14.95288        -0.01609
C         12.27851        14.23512        -0.27689
C         13.51352        16.37640        -0.24491
C         12.40541        16.98180        -0.93281
C         13.66367        19.15068        -0.99889
C         12.66854        18.24231        -1.47769
C         13.59419        20.57063        -1.16395
C         12.35161        21.28825        -1.78624
C         13.58235        23.50650        -1.48741
C         12.26726        22.77030        -1.40458
C         13.50519        24.96426        -1.09241
C         12.28655        25.66564        -1.18383
C         13.50810        27.78875        -1.19138
C         12.29338        27.07205        -1.21596
C         13.51705        29.24273        -1.13797
C         12.28700        29.93284        -0.88949
C         13.53128        32.05070        -0.88521
C         12.30599        31.34897        -0.76407
C         13.48973        33.54123        -1.08158
C         12.30076        34.20535        -0.42607
C         13.53113        36.35107        -0.25843
C         12.32717        35.59506        -0.14413
C         13.56444        37.70955         0.13084
C         12.36594        38.36043         0.52548
C         15.95735         3.57223         0.93085
C         14.78977         4.24899         0.52711
C         15.99568         6.39164         0.62621
C         14.82166         5.65269         0.33073
C         16.03649         7.81997         0.52385
C         14.89443         8.53832        -0.14764
C         15.95703        10.70035         0.56747
C         14.79005         9.99486         0.20242
C         15.92049        12.14562         0.63659
C         14.70258        12.83420         0.36663
C         15.86417        14.99603         0.61597
C         14.67629        14.27022         0.35116
C         15.77875        16.48809         0.81473
C         14.66608        17.13023         0.02612
C         15.89849        19.28312         0.03833
C         14.73762        18.52508        -0.26905
C         15.91471        20.66973        -0.26207
C         14.73516        21.33116        -0.78001
C         15.91838        23.48001        -0.60123
C         14.75577        22.76663        -0.87678
C         15.91539        24.97927        -0.38726
C         14.69800        25.67563        -0.91615
C         15.99390        27.76754        -1.14455
C         14.72515        27.08093        -1.03197
C         15.98044        29.20569        -1.62366
C         14.72757        29.94434        -1.21117
C         16.01632        32.08151        -1.04865
C         14.74983        31.36054        -1.05911
C         16.00824        33.53007        -0.84968
C         14.80689        34.21609        -0.79964
C         16.07972        36.42586        -0.50841
C         14.76439        35.68542        -0.71211
C         16.03506        37.75986         0.12403
C         14.82474        38.39142         0.30146
C         18.35556         3.58169         1.54561
C         17.15144         4.27297         1.17746
C         18.36343         6.41821         1.36148
C         17.16763         5.69559         1.07057
C         18.37113         7.84660         1.34045
C         17.16230         8.55237         0.94730
C         18.26183        10.75508         1.46647
C         17.12668         9.98582         0.94469
C         18.31721        12.20730         1.22050
C         17.10321        12.88656         0.88930
C         18.30740        15.05008         1.04343
C         17.07539        14.31946         0.85890
C         18.30927        16.48372         0.90092
C         17.10040        17.19390         0.66306
C         18.33555        19.29940         0.56202
C         17.11012        18.59005         0.47150
C         18.31683        20.80557         0.61464
C         17.10665        21.43086        -0.03706
C         18.36498        23.60854         0.05901
C         17.12051        22.79981        -0.25285
C         18.39387        24.96665        -0.61706
C         17.20374        25.65815        -0.78170
C         18.44215        27.73277        -1.59764
C         17.17620        27.05218        -1.13706
C         18.46376        29.22716        -1.30654
C         17.26336        29.95105        -1.31081
C         18.50212        32.12994        -1.14854
C         17.22409        31.37823        -1.17077
C         18.52354        33.51247        -0.63930
C         17.26941        34.24922        -0.62069
C         18.59771        36.36606        -0.23441
C         17.29663        35.60960        -0.38177
C         18.45747        37.64032         0.57257
C         17.26269        38.31449         0.62980
C         19.51519         4.26859         1.77501
C         20.74302         6.41469         1.93802
C         19.55209         5.70034         1.69291
C         20.75047         7.80251         1.90033
C         19.57600         8.53186         1.62778
C         20.79076        10.80854         1.63247
C         19.56890        10.01134         1.76796
C         20.74879        12.16525         1.53615
C         19.51724        12.90863         1.39116
C         20.72517        15.10329         1.38165
C         19.51673        14.35366         1.27075
C         20.74195        16.46467         1.20187
C         19.54608        17.19146         0.93647
C         20.78822        19.34731         0.64924
C         19.54914        18.61413         0.74972
C         20.81294        20.66800         0.29415
C         19.61662        21.44581         0.17781
C         20.83066        23.48867        -0.48576
C         19.63309        22.80260        -0.13043
C         20.84857        24.83053        -0.78698
C         19.65417        25.60714        -0.87332
C         20.89958        27.71297        -1.14404
C         19.70016        26.99821        -1.18165
C         20.91472        29.11406        -1.17846
C         19.73392        29.86385        -1.18610
C         20.96175        31.99343        -0.49682
C         19.80642        31.34238        -1.12597
C         20.92237        33.29931        -0.13649
C         19.72287        34.10110        -0.23598
C         20.80404        36.05421         0.87592
C         19.74710        35.48872         0.20650
C         20.76332        37.41125         1.33879
C         19.62896        38.16578         1.21962
O         11.86498        18.66185        -2.54659
O         18.66898        10.42417         2.84781
O         19.32516        31.97163        -2.36391
O          1.76254        34.00628        -0.57989
O         10.28434        27.72177        -2.59219
O          7.73708        20.97968        -2.30987
O         10.49309         8.05220        -1.55767
O          8.28912        35.41611         2.24390
O          4.30210        18.53419         1.14530
O         15.44664        36.36252        -1.82802
O         12.55256        21.23681        -3.22798
H         12.42955        20.29609        -3.49811
O         10.96823        10.67575         1.78686
H         10.22659        11.27405         2.02271
O         13.90282        23.58142        -2.91998
H         13.53825        22.76762        -3.34891
O          9.96759        21.51142         0.52447
H         10.12565        20.63730         0.93765
O         15.25885         8.51949        -1.61504
H         14.60612         9.09554        -2.07090
O          2.46062         5.37559        -2.02048
H          1.66694         4.86078        -2.28080
O          3.76097        35.87115         3.12811
H          4.58387        36.24998         3.50560
O          2.43364         9.75902        -2.35909
H          1.67109         9.21209        -2.64685
O          4.02794        23.29317         2.04285
H          4.04893        22.33774         2.26747
O          9.66737        22.55564        -2.96050
H          9.65703        23.45986        -3.35786
O          4.76765         5.61872         1.83671
H          5.58674         5.22485         2.20769
O         10.77208        25.01550         0.51298
H         11.47489        24.51092         0.97398
O          3.57999        14.88270        -2.55273
H          3.62541        13.95997        -2.88342
O         18.39718        27.64391        -3.07860
H         19.20469        28.08718        -3.41833
O          9.78254        25.29113        -2.98752
H         10.13804        26.10831        -3.41944
O         15.81502        25.13884         1.07481
H         16.65896        24.77697         1.45705
O          9.88451         5.71372         1.96381
H         10.63846         5.17516         2.28727
O         13.26327        33.73289        -2.52926
H         14.03307        33.35073        -3.00269
O          2.45539        18.76345        -2.01087
H          1.70919        18.29127        -2.43757
O         18.18254        21.15314         2.05875
H         18.91376        20.69813         2.53016
O         18.28100        23.89743         1.50656
H         18.22324        23.01245         1.95688
O         18.93689        36.81170        -1.59511
H         18.97520        36.01387        -2.16480
O          4.70168        10.02995         1.54516
H          5.40634         9.48987         1.96400
O          6.59393        33.05988         2.29559
H          7.11825        33.81821         2.63983
O          4.78070        31.58335        -1.59721
H          3.88392        31.29445        -1.87334
O         15.40390        16.66790         2.23872
H         16.09207        16.22199         2.77739
O         13.83593         6.14783        -1.77081
H         14.54367         6.79129        -2.02361
O          6.99737        34.48735        -1.08396
H          6.77975        33.65516        -1.55745
O         15.93240        29.11560        -3.08718
H         16.72088        28.58294        -3.36303
O          8.38513        16.09917        -2.84698
H          8.34883        17.00509        -3.22325
H          1.24968         2.25909         0.29391
H         -0.88713         3.50939         0.31943
H         -0.94259         5.96676         0.15843
H         -0.99856         7.86174        -0.27631
H         -1.02279        10.28574        -0.29596
H         -1.01257        12.18582        -0.19438
H         -0.99041        14.60593        -0.13812
H         -0.97476        16.47864        -0.15858
H         -0.97520        18.85460         0.24543
H         -0.95946        20.79826         0.40508
H         -0.89983        23.20489         0.69803
H         -0.80862        25.03713         1.17862
H         -0.82297        27.46162         1.22900
H         -0.86774        29.32048         1.15265
H         -0.92114        31.75722         1.12338
H         -0.99768        33.74394         1.19558
H         -0.86725        36.17270         1.44746
H          0.41802        38.27377         1.64651
H          3.70439         2.27185         0.16316
H          2.57023        39.47708         1.78622
H          6.18953         2.33116        -0.09846
H          5.06576        39.42398         1.66830
H          8.62062         2.35880         0.01717
H          7.50429        39.37774         1.59489
H         11.09875         2.36566         0.06674
H          9.97269        39.42985         1.13432
H         13.57376         2.42267         0.48518
H         12.40346        39.42563         0.79800
H         15.93446         2.47923         1.05470
H         14.80510        39.39944         0.74342
H         18.33151         2.48493         1.62290
H         17.21494        39.28454         1.14969
H         20.43819         3.73222         2.03954
H         21.66362         5.86585         2.18265
H         21.68282         8.33842         2.12601
H         21.76132        10.29493         1.57655
H         21.70302        12.70546         1.47199
H         21.67167        14.59218         1.59953
H         21.70108        16.99267         1.28164
H         21.74232        18.81687         0.76088
H         21.78722        21.14711         0.12766
H         21.77709        22.93319        -0.53623
H         21.81259        25.28935        -1.04384
H         21.85522        27.19448        -0.98858
H         21.88553        29.62468        -1.13219
H         21.86374        31.40308        -0.28370
H         21.82337        33.75089         0.29944
H         21.69565        35.46298         1.12746
H         21.64331        37.81468         1.85883
H         19.57417        39.16615         1.67411
