         621
 CSIRO Nanostructure Databank - Neutral Graphene Oxide Data Set
C          5.78916        31.75514        -0.06994
C          5.83202        33.11862         0.01641
C          8.19392        27.38617        -0.08105
C          7.79559        28.59070        -0.58323
C          6.74821        29.53004        -0.22235
C          8.28687        31.57693        -0.17113
C          6.94473        30.89886        -0.25151
C          8.31991        33.07405         0.10145
C          7.06843        33.85859         0.04536
C          8.37387        35.94626         0.19625
C          7.12236        35.23457         0.07045
C          8.41012        37.34051         0.33037
C         10.43409        23.11645        -0.56381
C         10.64572        24.51263        -0.42038
C          9.46859        25.32947        -0.36799
C         10.71771        27.40357        -0.70497
C          9.45566        26.71611        -0.43707
C         10.81270        28.85469        -0.84095
C          9.67512        29.66313        -1.03748
C         10.80839        31.70219        -0.39833
C          9.58717        30.98650        -0.58070
C         10.82647        33.10142        -0.16391
C          9.59573        33.81256        -0.02185
C         10.90759        35.81899         0.54503
C          9.59272        35.19728         0.14476
C         10.91041        37.34223         0.62274
C          9.62438        38.07708         0.48053
C         10.85265        40.23945         0.52144
C          9.63442        39.46352         0.47867
C         10.82767        41.61765         0.69919
C         12.99881        18.77855        -0.14567
C         12.90010        20.13417        -0.35127
C         11.61659        20.79272        -0.64859
C         13.32399        23.18441        -0.16647
C         11.40063        22.10371        -0.26148
C         13.18331        24.58330        -0.44515
C         11.92457        25.23481        -0.44032
C         13.20818        27.37248        -1.00606
C         11.90856        26.66329        -0.64504
C         13.26439        28.85154        -0.71777
C         12.03876        29.56150        -0.69070
C         13.26855        31.68894        -0.72403
C         12.04838        30.99131        -0.60750
C         13.28289        33.13986        -0.72826
C         12.05865        33.85275        -0.36579
C         13.12757        36.07557        -0.88785
C         12.06364        35.22314        -0.22902
C         13.36785        37.43265        -0.22804
C         12.17868        38.10512         0.33468
C         13.31972        40.28170         0.16658
C         12.10973        39.56675         0.30367
C         13.32018        41.70435         0.39680
C         12.09650        42.35665         1.00591
C         13.17578        44.60347         0.63082
C         12.02681        43.84625         0.79930
C         13.21894        46.02142         0.69190
C         15.73427        14.57761         0.62201
C         15.62681        15.99689         0.60643
C         14.41235        16.64903         0.39054
C         15.53087        18.91869         0.34055
C         14.24842        18.11622         0.33787
C         15.51063        20.23604        -0.37010
C         14.18359        20.90627        -0.57779
C         15.56851        23.00142        -1.15949
C         14.31399        22.37878        -0.66077
C         15.65622        24.50444        -0.97624
C         14.43645        25.27867        -0.62065
C         15.74393        27.37286        -0.44525
C         14.46584        26.64589        -0.61296
C         15.75333        28.85068        -0.59315
C         14.46534        29.55115        -0.75741
C         15.73993        31.65305        -0.99285
C         14.49717        30.97591        -0.82810
C         15.71295        33.10712        -1.40478
C         14.44884        33.82383        -0.97124
C         15.71958        36.04039        -1.26046
C         14.41443        35.29570        -1.16648
C         15.70638        37.58610        -1.24637
C         14.48998        38.19285        -0.53036
C         15.70703        40.42104        -0.46811
C         14.49819        39.60926        -0.26976
C         15.74933        41.80500         0.01150
C         14.49423        42.43459         0.28922
C         15.76396        44.64014         0.52663
C         14.44255        43.90388         0.31796
C         15.67390        45.99841         1.02948
C         14.44599        46.73245         0.92295
C         15.61610        48.85087         1.77143
C         14.43239        48.10421         1.22475
C         15.69436        50.24456         1.19839
C         18.29433        10.39363         1.24803
C         18.26642        11.79358         1.06801
C         17.03786        12.51560         0.92473
C         18.21303        14.69383         0.84361
C         16.97325        13.91664         0.79523
C         18.20952        16.06195         0.75637
C         16.89389        16.75303         0.80947
C         18.08191        18.95587         0.18586
C         16.85125        18.22743         0.56563
C         17.92952        20.30411         0.05329
C         16.76896        21.03827        -0.37869
C         18.06490        23.01025        -1.63985
C         16.85672        22.27812        -0.97707
C         18.24193        24.46205        -1.18596
C         16.99992        25.14077        -0.75622
C         18.28157        27.36918        -0.83232
C         17.04131        26.62589        -0.52943
C         18.22382        28.78505        -0.92528
C         17.02113        29.54018        -0.89762
C         18.20960        31.72844        -1.10489
C         16.97413        30.96005        -1.03231
C         18.20394        33.10159        -0.94261
C         16.96791        33.87306        -1.01506
C         18.17179        36.00695        -0.57659
C         16.95460        35.25114        -0.95537
C         18.15656        37.48892        -0.63221
C         17.00990        38.20227        -0.74731
C         18.22580        40.36446        -0.09379
C         17.05325        39.68306        -0.62453
C         18.22816        41.74019         0.16947
C         16.98093        42.47643         0.18704
C         18.20852        44.46912         0.96256
C         17.01113        43.85013         0.61009
C         18.19819        45.85085         1.49651
C         16.87569        46.62534         1.57288
C         18.13046        48.74404         1.58456
C         16.92180        48.09300         1.60713
C         18.10150        50.23347         1.70502
C         16.88260        50.95547         1.24686
C         18.20618        53.07886         1.02128
C         17.00455        52.32133         0.86752
C         18.26952        54.47079         0.66643
C         20.74044         6.25960         2.41155
C         20.71472         7.58448         1.90578
C         19.53296         8.30174         1.71988
C         20.74215        10.40337         1.17585
C         19.51712         9.69100         1.35591
C         20.73587        11.81581         1.11416
C         19.50507        12.50479         1.09160
C         20.77927        14.72476         1.06019
C         19.46888        13.97289         1.15165
C         20.76837        16.11209         0.56223
C         19.48189        16.86168         0.70920
C         20.64520        18.84106        -0.49614
C         19.44790        18.33558         0.33875
C         20.75470        20.21242        -1.10234
C         19.71127        21.08173        -1.00755
C         20.75025        23.06228        -1.90448
C         19.43938        22.30962        -1.74129
C         20.76235        24.41579        -1.22738
C         19.43130        25.16064        -1.22254
C         20.73046        27.28456        -1.21237
C         19.48943        26.61759        -1.04243
C         20.77936        28.74911        -1.04958
C         19.49099        29.53568        -0.92570
C         20.77963        31.66291        -1.26621
C         19.46199        30.95821        -1.47279
C         20.79563        33.08873        -0.85125
C         19.49099        33.79626        -0.65542
C         20.76035        36.03217        -0.79435
C         19.49986        35.29304        -0.51579
C         20.70189        37.54908        -0.83180
C         19.44095        38.12697        -0.22033
C         20.73019        40.32226         0.15434
C         19.45389        39.58535         0.10940
C         20.72095        41.69316         0.43253
C         19.46559        42.41292         0.50710
C         20.70525        44.49909         1.07159
C         19.46269        43.77628         0.85668
C         20.67689        45.89267         1.28596
C         19.44732        46.63362         1.41284
C         20.62281        48.81212         1.20464
C         19.38954        48.03235         1.48182
C         20.64115        50.30588         1.38660
C         19.37399        51.00220         1.74235
C         20.58387        53.20423         1.87909
C         19.37976        52.45380         1.48828
C         20.58635        54.67545         1.59121
C         19.43153        55.23120         0.83731
C         20.77628        57.24949         0.29248
C         19.54063        56.55441         0.36294
C         20.80596        58.54390        -0.30175
C         23.16543         3.79470         3.87872
C         22.04304         4.29252         3.19752
C         23.15562         6.18723         2.05440
C         21.95387         5.54330         2.51404
C         23.27371         7.55298         1.82519
C         21.99094         8.21067         1.47353
C         23.34924        10.35203         0.88463
C         22.00107         9.64487         1.03571
C         23.24018        11.84430         1.12826
C         22.00398        12.53899         1.05272
C         23.23113        14.65126         0.76143
C         22.01896        13.94259         0.94072
C         23.22391        16.02310         0.33030
C         21.94564        16.70253         0.15986
C         23.20408        18.63767        -1.00261
C         21.89529        18.00861        -0.55896
C         23.26398        20.09880        -1.29516
C         22.00500        20.73157        -1.69661
C         23.28002        22.99004        -1.64564
C         22.02924        22.27164        -1.89198
C         23.21280        24.44034        -1.65734
C         22.02284        25.16965        -1.57538
C         23.16949        27.35333        -1.61096
C         21.97184        26.61377        -1.51387
C         23.20170        28.79139        -1.54254
C         21.99874        29.48871        -1.41812
C         23.21854        31.61925        -1.49422
C         21.96619        30.93213        -1.39311
C         23.24872        33.09257        -1.43264
C         22.05851        33.90834        -1.02232
C         23.14768        36.25083        -1.21305
C         21.93497        35.41484        -1.14590
C         23.18847        37.54329        -0.60337
C         21.96270        38.22018        -0.33294
C         23.18688        40.28525         0.24474
C         21.95319        39.58643         0.03505
C         23.20286        41.67423         0.48718
C         21.96345        42.39906         0.61831
C         23.21656        44.48871         0.90456
C         21.95928        43.78502         0.91538
C         23.25537        45.93517         1.21506
C         21.94852        46.63618         1.41484
C         23.21279        48.83977         1.38037
C         21.93905        48.10420         1.12046
C         23.15754        50.24090         1.85482
C         21.92187        51.03849         1.60919
C         23.22008        53.19554         1.96302
C         21.91984        52.47313         2.07218
C         23.19200        54.68781         1.89190
C         21.91191        55.40608         1.53872
C         23.25943        57.21002         0.40741
C         21.99731        56.64509         0.74313
C         23.25701        58.40254        -0.46719
C         22.01262        59.17869        -0.62739
C         23.30026        61.16378        -1.30715
C         22.07311        60.47841        -1.16597
C         24.42550         4.39671         4.01951
C         25.71043         6.50327         3.36059
C         24.85771         5.42894         3.14662
C         25.68942         7.72741         2.59555
C         24.51642         8.27711         1.92816
C         25.67372        10.44043         1.81936
C         24.52058         9.67596         1.61421
C         25.64071        11.90511         1.70108
C         24.42417        12.57742         1.22514
C         25.70197        14.68095         0.85239
C         24.45627        13.97490         0.98128
C         25.69590        16.01192         0.34666
C         24.44655        16.64838         0.05782
C         25.75466        18.69539        -0.69610
C         24.48619        17.94207        -0.65298
C         25.73434        20.05944        -1.24805
C         24.45029        20.81168        -1.35955
C         25.73897        22.99340        -1.35839
C         24.47598        22.26381        -1.52181
C         25.74324        24.42334        -1.42553
C         24.50259        25.14110        -1.78824
C         25.66654        27.38487        -1.33816
C         24.44988        26.65280        -1.79323
C         25.69216        28.84855        -1.52179
C         24.46619        29.51458        -1.59768
C         25.70122        31.67559        -1.59881
C         24.44197        30.95196        -1.59018
C         25.68184        33.11323        -1.85447
C         24.44731        33.65720        -2.06713
C         25.63553        36.27868        -1.39853
C         24.36107        35.80615        -1.76117
C         25.67850        37.52757        -0.71621
C         24.45304        38.16765        -0.38230
C         25.76353        40.31296         0.17632
C         24.43424        39.51180         0.21531
C         25.65726        41.76118         0.12294
C         24.45159        42.41571         0.41142
C         25.59176        44.65305         0.05106
C         24.39616        43.85291         0.54550
C         25.70509        46.11995         0.46060
C         24.33153        46.81758         0.56282
C         25.67279        48.83688         1.59772
C         24.40643        48.19444         1.22360
C         25.69884        50.26695         1.83262
C         24.43740        51.01126         2.00951
C         25.70648        53.14736         1.74703
C         24.41790        52.49536         1.87937
C         25.76712        54.61743         1.73783
C         24.48774        55.40212         1.61796
C         25.75786        57.26838         0.47937
C         24.48369        56.64532         0.81034
C         25.78115        58.57658        -0.05727
C         24.60763        59.17033        -0.66412
C         24.50992        60.59029        -0.97897
C         26.86204         8.51381         2.67598
C         28.14080        10.58518         2.17978
C         26.90760         9.84846         2.24619
C         28.20204        11.92743         1.80273
C         26.93532        12.68219         1.70837
C         28.15565        14.69538         0.91413
C         26.93565        14.03634         1.12706
C         28.15628        16.04548         0.44636
C         26.93593        16.69604         0.14072
C         28.21294        18.77287        -0.41951
C         26.94491        18.06595        -0.34587
C         28.24607        20.15457        -0.65598
C         27.04270        20.85314        -1.14032
C         28.14978        23.07604        -0.75564
C         26.94123        22.31869        -1.09184
C         28.16731        24.51337        -1.02291
C         26.96697        25.15363        -1.28834
C         28.20966        27.40011        -1.17335
C         26.93733        26.63768        -1.16803
C         28.17682        28.84428        -1.29079
C         26.94162        29.54345        -1.45982
C         28.15741        31.74505        -1.40888
C         26.90145        30.97616        -1.54736
C         28.17296        33.24157        -1.55449
C         26.90832        33.96485        -1.92781
C         28.14543        36.11747        -1.15632
C         26.87394        35.49069        -1.68501
C         28.17983        37.59620        -0.94818
C         26.95418        38.23835        -0.61900
C         28.19933        40.30960        -0.30687
C         26.97661        39.61642        -0.31977
C         28.16326        41.73050         0.07966
C         26.90966        42.50876        -0.30401
C         28.15572        44.57306         0.70684
C         26.87643        43.89974         0.32413
C         28.17279        45.97570         1.15349
C         26.96760        46.77041         1.03270
C         28.11251        48.75624         2.07686
C         26.86744        48.11844         1.63004
C         28.15544        50.27657         2.04855
C         26.89058        50.98269         1.81489
C         28.18764        53.06249         1.42578
C         26.90501        52.42117         1.71268
C         28.22458        54.40141         1.06196
C         27.07995        55.27787         1.29626
C         26.98371        56.61090         0.70919
C         29.40424        12.64985         1.58748
C         30.61793        14.73063         1.08044
C         29.40635        14.00374         1.19663
C         30.64778        16.07258         0.67330
C         29.41144        16.74422         0.29457
C         30.75111        18.72841        -0.46066
C         29.43328        18.06730        -0.13241
C         30.69035        20.23332        -0.38966
C         29.49353        20.88284        -0.53177
C         30.72253        23.11891        -0.48396
C         29.43933        22.36516        -0.46494
C         30.69820        24.56673        -0.56504
C         29.48257        25.23286        -1.18421
C         30.62733        27.48777        -0.74521
C         29.38923        26.72471        -0.97326
C         30.65656        28.90501        -1.13429
C         29.43369        29.54246        -1.35042
C         30.72638        31.74176        -1.52198
C         29.42939        30.98840        -1.62801
C         30.63216        33.19777        -1.20983
C         29.46729        33.94740        -1.68261
C         30.71856        36.12987        -1.40304
C         29.43499        35.36873        -1.25621
C         30.69585        37.62016        -1.21586
C         29.40982        38.27731        -0.84630
C         30.69406        40.38705        -0.32943
C         29.43593        39.65205        -0.48434
C         30.71237        41.74557        -0.13742
C         29.45841        42.46406         0.17558
C         30.70423        44.51414         0.78013
C         29.43581        43.98355         0.12963
C         30.70885        45.83455         1.46951
C         29.40317        46.53622         1.71300
C         30.68838        48.75445         1.83313
C         29.41787        48.00717         2.04561
C         30.64181        50.15486         1.69678
C         29.44326        50.93072         1.73009
C         29.39842        52.27725         1.39054
C         31.85141        16.82679         0.73489
C         33.07172        18.94017         0.52642
C         31.91971        18.15935         0.31440
C         33.15763        20.31246         0.20241
C         32.00395        20.96541        -0.53518
C         33.09437        23.20745         0.22932
C         31.89884        22.44575        -0.27971
C         33.15005        24.61605        -0.29263
C         31.89800        25.27112        -0.51668
C         33.19264        27.44844        -0.82753
C         31.92053        26.75094        -0.55247
C         33.17643        28.87669        -0.99581
C         31.92910        29.59692        -1.11111
C         33.18639        31.72400        -1.04319
C         31.96214        31.00140        -1.20503
C         33.18768        33.13101        -1.00761
C         31.95225        33.90725        -0.91839
C         33.22798        36.12754        -0.81925
C         32.00662        35.38216        -1.19848
C         33.23244        37.48663        -0.73616
C         32.00693        38.30975        -0.94003
C         33.24932        40.44056        -0.30384
C         31.98020        39.61005        -0.15104
C         33.25671        41.79142        -0.20902
C         31.97629        42.52612        -0.18686
C         33.25438        44.60448         0.68939
C         31.98546        43.96985         0.22894
C         33.17300        45.95128         1.21035
C         31.97132        46.62177         1.47688
C         31.89505        48.02905         1.66574
C         34.33573        21.04332         0.38026
C         35.57247        23.17367         0.12260
C         34.39555        22.45454         0.17043
C         35.60981        24.59510        -0.14206
C         34.35917        25.30291        -0.42951
C         35.66581        27.36224        -1.07925
C         34.37457        26.70142        -0.79186
C         35.69877        28.87068        -1.34999
C         34.40591        29.59678        -1.03812
C         35.69941        31.72797        -0.93577
C         34.43191        30.99796        -0.99901
C         35.71039        33.10834        -0.83287
C         34.43835        33.83346        -0.70170
C         35.74016        36.01476        -0.34205
C         34.43369        35.31929        -0.48349
C         35.66729        37.43735         0.04452
C         34.50690        38.21638        -0.48953
C         35.76535        40.39116         0.15379
C         34.53823        39.70161        -0.35955
C         35.71838        41.78008         0.27236
C         34.54847        42.59888        -0.22890
C         34.43389        43.93036         0.49233
C         36.80412        25.28289        -0.10229
C         38.10298        27.46330        -0.30100
C         36.92294        26.64795        -0.63353
C         38.10688        28.83405        -0.37779
C         36.92133        29.58695        -0.78921
C         38.25032        31.71144        -0.70004
C         36.93712        30.95956        -0.79801
C         38.06629        33.09157        -0.05794
C         37.00859        33.89880        -0.82268
C         38.16247        36.01144         0.03397
C         36.91269        35.31970        -0.28284
C         38.18150        37.36897         0.28390
C         36.95065        38.17018         0.37355
C         36.94382        39.64135         0.34899
C         39.27892        29.57278         0.06376
C         40.51993        31.68894         0.37381
C         39.34625        30.93526        -0.00672
C         40.55177        33.05564         0.34076
C         39.37267        33.84728         0.07433
C         39.37993        35.21701         0.11137
O         15.75333        28.22128         0.76857
O         12.36937        22.58490         0.64846
O         25.25819        39.69493         1.40169
O          8.56584        29.09518        -1.65498
O         28.06445        49.53231         3.31047
O         31.43114        38.35093        -2.26544
O         23.86398        55.44365         2.95448
O         28.73177        35.48866         0.04462
O         24.27176         5.37842         1.85995
O         34.24916        34.45227         0.69431
O         15.13208        44.50239        -0.81377
O         17.46181        45.95953         2.75628
O         17.15445        25.68069         0.59816
O         27.31756        43.85065         1.69913
O         19.99368        22.63298        -3.05105
O         19.44318        38.51707         1.17260
O         34.83003        39.05923        -1.66280
O         24.28901        34.84214        -2.77521
O         21.90119         8.56663         0.03039
O         18.69581        50.64016         2.99847
O         23.68849        50.49656         3.18543
O         30.74394        44.56416         2.22726
O         14.90110        20.24150        -1.69681
O         28.79227        41.94032         1.37460
O         23.88243        17.83564        -2.02104
O         15.44524        23.91317        -2.29522
O         16.90322        17.70333         1.93504
O         22.06444        21.32920        -3.01059
O         11.74673        37.73238         1.76625
O         16.39967        40.32875        -1.77611
O         26.10184        27.00031         0.01528
O         26.58157        20.27039        -2.42221
O          8.38737        32.10660         1.20807
O         14.72398        18.86795         1.54313
O         26.59526        46.79644        -0.42532
O         31.93968        43.63326        -1.19234
O         26.12950        12.57053         2.93318
O         20.11930        14.52307         2.35960
O         20.19737        33.20596         0.49516
O         31.05573        33.51882         0.16773
O         23.97580        46.88603        -0.78790
O         20.27409        29.27791         0.25878
O         21.21485        48.42862        -0.09619
O         18.78948        35.63924         0.71691
O         21.00218        55.51839         2.69643
O         19.05347        21.08779         0.22322
O         28.11660        32.59005        -0.21043
O         15.01178        35.60103        -2.48162
O         36.49481        26.66612        -2.07287
O         19.69849        17.93945         1.71112
O         29.38843        47.01754         3.11617
O         31.19878        27.29405         0.62309
O         20.88984        17.91628        -1.63349
O         31.50273        35.69681        -2.54914
O         22.80833        46.28433         2.55770
O         21.09007        52.80518         3.20734
O         23.07719        33.56979        -0.01972
O         28.62447        22.79718         0.69054
O         26.64542        55.20417         2.72512
O         21.34388        50.95329         0.26942
O         24.62300        25.92847        -3.05217
O         27.03212        34.90839        -3.02315
O         24.01203        58.26805        -1.68351
O         30.15749        31.39440        -2.83371
O         35.99066        37.67936         1.44036
O         31.03361        18.39908        -1.88124
H         30.20976        18.56806        -2.38828
O         15.58577        37.96277        -2.64099
H         15.76685        38.93571        -2.69558
O         23.71112        10.27695        -0.52731
H         23.30600         9.44468        -0.87154
O         31.97496        39.16162         1.24032
H         31.74515        39.91881         1.81990
O         20.57896        37.91027        -2.25492
H         21.41059        37.64830        -2.70505
O         37.56553        32.84943         1.27427
H         37.34075        33.71002         1.68715
O         32.34962        20.84540        -1.96061
H         32.17384        19.90372        -2.21117
O         11.08638        35.32513         1.91468
H         11.57486        36.03028         2.40464
O         15.69930        33.05893        -2.87486
H         15.47789        33.97755        -3.17425
O         35.82185        29.02054        -2.80090
H         36.30850        28.22243        -3.11867
O         20.93963        24.01504         0.18124
H         20.86058        24.81909         0.73900
O         26.94646        42.59122        -1.74074
H         26.34117        43.32708        -2.01413
O         37.44755        34.06394        -2.19345
H         36.76854        34.57564        -2.67908
O         34.85247        42.91140        -1.62831
H         34.81085        42.07382        -2.13757
O         17.59348        23.10463        -3.00697
H         18.38082        23.16167        -3.59753
O         19.33097        30.74853        -2.93044
H         18.93174        31.55092        -3.32920
O         38.72416        31.89872        -2.05784
H         38.72345        31.02528        -2.50133
O         32.84338        23.34845         1.68285
H         32.02451        23.87963         1.79268
O         29.41482        44.43201        -1.24128
H         30.26508        44.14859        -1.66513
O         29.77303        25.10926        -2.64009
H         28.98766        25.42646        -3.13653
O         15.39804        48.97419         3.22323
H         16.19433        49.39706         3.61194
O         13.25555        27.32204        -2.49138
H         13.16072        26.38238        -2.76058
O         25.38026        44.71730        -1.38856
H         24.79427        45.53009        -1.52005
O         12.29605        42.18829         2.47560
H         12.19513        41.23204         2.67557
O         12.54968        36.43220        -2.18212
H         13.31325        36.56342        -2.79560
H          4.80734        31.25769        -0.05381
H          4.89067        33.68334         0.08892
H          7.56740        26.88260         0.67054
H          5.74023        29.15222         0.01558
H          6.18813        35.81635         0.04944
H          7.46478        37.90329         0.30018
H          9.42043        22.80184        -0.86094
H          8.50840        24.81300        -0.21574
H          8.67786        40.00610         0.43657
H          9.86675        42.12834         0.86145
H         12.07818        18.17423        -0.12797
H         10.85131        20.23029        -1.20441
H         11.06813        44.34966         0.99682
H         12.27494        46.57821         0.78718
H         14.81915        13.97282         0.53196
H         13.52214        16.03082         0.19410
H         13.47054        48.63871         1.20153
H         14.77315        50.73202         0.84592
H         17.34738         9.84014         1.32941
H         16.09814        11.94302         0.91473
H         16.10568        52.84283         0.50685
H         17.39134        54.93689         0.19556
H         19.80488         5.80037         2.76419
H         18.57124         7.81169         1.93423
H         18.65506        57.02659        -0.08856
H         19.85378        59.03706        -0.54808
H         22.97328         2.92103         4.52208
H         21.09063         3.77380         3.39056
H         23.27462        62.22270        -1.60152
H         21.13413        61.01494        -1.36197
H         25.05822         4.10072         4.86910
H         26.39906         6.47016         4.21890
H         26.72193        59.14643        -0.03859
H         25.41738        61.20707        -0.90997
H         27.76737         8.06128         3.10721
H         29.07721        10.03799         2.36856
H         29.15176        54.83461         0.65816
H         27.90436        57.07649         0.32679
H         30.36810        12.13996         1.73857
H         31.56266        14.23336         1.34801
H         31.58423        50.68407         1.48703
H         30.33125        52.79251         1.11561
H         32.73711        16.36549         1.19892
H         33.93512        18.46631         1.02160
H         34.11690        46.50727         1.32000
H         32.82727        48.60718         1.57090
H         35.25161        20.51522         0.69245
H         36.53522        22.64397         0.19469
H         36.62736        42.32011         0.57969
H         35.37785        44.40625         0.80094
H         37.71944        24.77325         0.23528
H         38.99015        26.94342         0.09162
H         39.14708        37.87642         0.43231
H         37.88278        40.17257         0.56733
H         40.11959        28.99752         0.48258
H         41.42079        31.12994         0.67080
H         41.48684        33.58457         0.58169
H         40.32765        35.75147         0.28373
