         651
 CSIRO Nanostructure Databank - Neutral Graphene Oxide Data Set
C          5.76866        31.76190        -0.35039
C          5.79128        33.12622        -0.30836
C          8.28652        27.35817        -0.39979
C          8.20054        28.77356        -0.94839
C          6.96876        29.59505        -0.58985
C          8.18654        31.74908        -0.79439
C          6.96841        30.97902        -0.59184
C          8.22575        33.12273        -0.66338
C          7.01587        33.88640        -0.44698
C          8.23439        36.06236        -0.52828
C          7.03353        35.28110        -0.42107
C          8.25737        37.44453        -0.60816
C         10.82245        23.15204         0.41268
C         10.72774        24.59479         0.22346
C          9.54215        25.27429         0.10870
C         10.75611        27.42449        -0.20336
C          9.47820        26.70412        -0.18520
C         10.71320        28.90603        -0.23375
C          9.43093        29.57852        -0.58146
C         10.71127        31.73918        -1.22512
C          9.42872        30.99638        -1.07151
C         10.75560        33.19849        -1.05168
C          9.52191        33.84203        -0.60616
C         10.77440        36.06269        -0.82671
C          9.52947        35.34730        -0.47929
C         10.74810        37.47487        -0.79682
C          9.49576        38.18789        -0.65001
C         10.74462        40.32202        -0.48198
C          9.51878        39.57830        -0.56768
C         10.72305        41.72478        -0.36793
C         13.38171        18.94304         0.81234
C         13.31669        20.31830         0.86087
C         11.95919        20.99879         0.92151
C         13.24460        23.27284         1.03769
C         11.98336        22.49852         0.69659
C         13.30122        24.60008         0.30609
C         12.01054        25.30887         0.01142
C         13.21852        27.54795         0.08520
C         11.95424        26.78370        -0.06361
C         13.27309        28.91852        -0.44906
C         12.00364        29.66347        -0.39339
C         13.22221        31.72185        -1.41884
C         11.99188        31.06842        -0.87467
C         13.18369        33.19088        -1.45667
C         11.97891        33.89197        -1.15631
C         13.17477        36.08630        -1.29117
C         11.97371        35.35376        -1.07779
C         13.18089        37.47602        -1.10065
C         11.97564        38.19685        -0.84930
C         13.24216        40.31303        -0.58056
C         11.99016        39.60578        -0.59476
C         13.28120        41.70772        -0.08106
C         11.90498        42.48315         0.02061
C         13.23456        44.58929         0.23827
C         12.01290        43.93150         0.01779
C         13.28448        45.98817         0.47315
C         15.85081        14.57840         0.99939
C         15.79391        16.00956         1.03100
C         14.63507        16.75929         0.82635
C         15.81533        18.92360         0.98703
C         14.62824        18.20165         0.83929
C         15.77442        20.37213         1.21173
C         14.52415        21.10816         0.96223
C         15.78814        23.22824         0.77241
C         14.54219        22.49848         0.90344
C         15.78549        24.67491         0.49973
C         14.58027        25.34901         0.38916
C         15.74287        27.53617        -0.15860
C         14.52074        26.81793         0.29023
C         15.70662        28.99874        -0.28412
C         14.48044        29.61194        -0.60766
C         15.79614        31.75465        -1.12453
C         14.53133        30.97863        -1.20638
C         15.78311        33.15521        -1.61705
C         14.42522        33.88730        -1.79597
C         15.72802        36.09433        -1.76657
C         14.40519        35.38765        -1.77014
C         15.76032        37.49489        -1.24248
C         14.46218        38.20467        -1.00658
C         15.70217        40.41517        -0.98368
C         14.42737        39.67106        -0.90455
C         15.80088        41.72483        -0.20892
C         14.50543        42.50783        -0.17514
C         15.74096        44.60843         0.24445
C         14.50026        43.86344         0.13071
C         15.75779        45.95480         0.57643
C         14.50048        46.67823         0.69231
C         15.74624        48.75990         1.20428
C         14.52636        48.05908         0.94647
C         15.73827        50.11305         1.52575
C         18.33758        10.27455         1.34134
C         18.28663        11.68463         1.37309
C         17.09336        12.42463         1.11029
C         18.19920        14.51259         1.88175
C         17.02359        13.83014         1.21729
C         18.28637        16.03450         1.62805
C         17.08751        16.73505         1.07457
C         18.35880        19.01999         1.20308
C         17.11746        18.25037         0.97433
C         18.37800        20.40898         1.10068
C         17.09607        21.15953         1.19910
C         18.26001        23.25812         0.43086
C         17.01057        22.56640         0.80903
C         18.28013        24.73245         0.36800
C         17.04945        25.38161         0.35295
C         18.30370        27.53930        -0.09003
C         17.04812        26.79337        -0.06482
C         18.28808        28.99497        -0.12501
C         16.92824        29.77416        -0.18778
C         18.25442        31.93257        -0.48031
C         16.93946        31.18471        -0.63942
C         18.24109        33.31962        -1.09498
C         17.02399        33.95475        -1.44223
C         18.22034        36.08700        -1.59607
C         17.01243        35.34852        -1.64701
C         18.19144        37.54324        -1.62716
C         17.01721        38.23709        -1.48059
C         18.24884        40.32225        -0.74024
C         16.98347        39.70948        -1.31302
C         18.29873        41.85074        -0.98917
C         16.97619        42.56145        -0.68058
C         18.29125        44.64355         0.05106
C         16.99528        43.98408        -0.24111
C         18.25293        45.93955         0.60041
C         17.01860        46.65653         0.78083
C         18.22507        48.75750         1.36371
C         17.00097        48.02139         1.14224
C         18.22925        50.10756         1.63414
C         16.96037        50.81068         2.05342
C         18.17314        53.04967         1.76099
C         16.99127        52.30311         1.81779
C         18.19193        54.44930         1.65835
C         20.74667         5.91699         1.42185
C         20.81748         7.43539         1.47886
C         19.60630         8.14155         1.43647
C         20.79393        10.28033         1.64327
C         19.55312         9.55761         1.48625
C         20.76759        11.67285         1.68251
C         19.53046        12.40039         1.59210
C         20.73023        14.52821         1.54007
C         19.51812        13.79848         1.69132
C         20.75925        15.88130         1.25624
C         19.60006        16.77602         1.48729
C         20.78194        19.03938         0.61060
C         19.69122        18.33235         1.39763
C         20.84414        20.45444         0.77348
C         19.60744        21.13430         0.98929
C         20.82086        23.35474         0.66295
C         19.57094        22.54586         0.57506
C         20.78268        24.75649         0.21675
C         19.52727        25.41849         0.12783
C         20.74276        27.55260        -0.32318
C         19.52019        26.84095        -0.11376
C         20.69735        28.96852        -0.56743
C         19.51480        29.68451        -0.52123
C         20.75184        31.84358        -0.97484
C         19.43373        31.10480        -1.05583
C         20.74565        33.34575        -0.79167
C         19.45427        34.02084        -1.20113
C         20.72805        36.13845        -1.55692
C         19.46294        35.40936        -1.48378
C         20.75362        37.54344        -1.68868
C         19.47668        38.27230        -1.76830
C         20.79019        40.37015        -1.06651
C         19.49852        39.73186        -1.37153
C         20.79541        41.72480        -0.45548
C         19.50092        42.47672        -0.30252
C         20.78613        44.57031         0.12628
C         19.51657        43.93818        -0.07528
C         20.81351        45.93779         0.55893
C         19.53113        46.55239         0.99113
C         20.75323        48.75865         1.10996
C         19.50358        48.00023         1.38127
C         20.74748        50.22113         1.33907
C         19.51158        50.84058         1.98423
C         20.75933        53.05997         2.01967
C         19.48042        52.31969         1.50866
C         20.76440        54.56278         1.72739
C         19.43897        55.24324         1.57850
C         20.72734        57.30336         0.83649
C         19.38217        56.60024         0.89300
C         20.75501        58.67421         0.66457
C         23.41162         3.18516         0.92028
C         22.22683         3.85477         1.31394
C         23.22509         6.02889         1.80234
C         22.09638         5.23519         1.53854
C         23.31289         7.42469         1.54234
C         22.04893         8.13451         1.50778
C         23.28459        10.24364         1.54405
C         22.05852         9.56968         1.60039
C         23.35507        11.68862         1.75348
C         22.02519        12.41976         1.83871
C         23.28762        14.62938         1.58224
C         22.02133        13.79960         1.23688
C         23.20605        15.91901         0.77503
C         21.93086        16.31815         0.52726
C         23.18604        18.99279         0.02424
C         21.87953        18.43812         0.03869
C         23.23340        20.41136         0.11213
C         22.05517        21.12671         0.44308
C         23.30593        23.28557         0.01773
C         22.13634        22.58845         0.56903
C         23.23070        24.65372        -0.21400
C         22.00545        25.40881        -0.08793
C         23.16144        27.49744        -0.77103
C         21.98574        26.83030        -0.39263
C         23.13650        28.92013        -1.14650
C         22.00897        29.72514        -0.52450
C         23.20097        31.84739        -1.20989
C         21.93573        31.15800        -1.00527
C         23.16699        33.27713        -1.40514
C         21.98754        34.00138        -1.34558
C         23.17457        36.15598        -1.67676
C         21.96426        35.42806        -1.55360
C         23.20653        37.56362        -1.57563
C         21.97439        38.27709        -1.61269
C         23.23566        40.44258        -1.23081
C         21.95836        39.71318        -1.37756
C         23.22713        41.84564        -0.78281
C         22.05911        42.48682        -0.44879
C         23.25748        44.59960         0.00281
C         22.01882        43.89031        -0.10130
C         23.25747        45.98395         0.34691
C         22.02113        46.62471         0.66396
C         23.20054        48.85380         0.64511
C         22.07131        48.01842         1.25105
C         23.23088        50.26515         1.21042
C         22.05588        50.91971         1.45098
C         23.29063        53.11798         1.92218
C         22.02888        52.43012         1.40037
C         23.27443        54.53051         1.35145
C         22.02665        55.20339         1.23050
C         23.17589        57.24865         0.39459
C         21.95278        56.55297         0.83197
C         23.20494        58.71452         0.40451
C         21.98389        59.41646         0.52611
C         23.20616        61.51351         0.31429
C         21.99768        60.83013         0.47003
C         24.66141         3.75369         0.68374
C         25.88796         5.99111         0.66174
C         25.01089         5.04088         1.17565
C         25.79249         7.39968         0.94058
C         24.55205         8.06158         1.28221
C         25.75997        10.30761         0.82430
C         24.48806         9.52530         1.07600
C         25.80743        11.76464         1.06496
C         24.55042        12.47278         1.31912
C         25.72370        14.51621         0.58715
C         24.50992        13.82978         1.18777
C         25.71196        16.03674         0.62390
C         24.40544        16.76358         0.51418
C         25.59979        18.85438        -0.19758
C         24.38571        18.19420         0.02306
C         25.64817        20.29684        -0.38447
C         24.47049        21.07838        -0.17823
C         25.69191        23.12843        -0.70210
C         24.49760        22.50062        -0.30037
C         25.74700        24.64374        -0.68619
C         24.37083        25.26940        -1.00643
C         25.68828        27.48888        -1.23040
C         24.43253        26.77645        -0.83721
C         25.69009        28.94745        -1.52091
C         24.39616        29.66266        -1.53450
C         25.65020        31.82896        -1.56698
C         24.39595        31.14502        -1.42340
C         25.69662        33.21566        -1.58701
C         24.42525        33.94117        -1.78436
C         25.75171        36.19974        -1.86657
C         24.43553        35.43754        -1.91357
C         25.64792        37.50448        -1.10250
C         24.46995        38.19349        -1.18981
C         25.48423        40.30648        -0.04574
C         24.50501        39.66279        -1.00838
C         25.72854        41.76655        -0.37807
C         24.53920        42.57873        -0.86702
C         25.71597        44.59529        -0.07100
C         24.49310        43.93252        -0.22458
C         25.70254        45.99902         0.14598
C         24.49887        46.70343         0.33573
C         25.69285        48.84522         0.60733
C         24.52243        48.12869         0.60870
C         25.75371        50.19791         1.21816
C         24.49964        50.99199         1.31046
C         25.79604        53.10695         1.67289
C         24.53368        52.33864         1.55340
C         25.75591        54.53227         1.29234
C         24.51060        55.15838         1.05918
C         25.75603        57.31465         0.57160
C         24.51453        56.51604         0.49225
C         25.68774        58.69711         0.35956
C         24.44323        59.40477         0.29551
C         24.41437        60.82315         0.23799
C         26.97277         8.16420         0.71635
C         28.23521        10.29688         0.79136
C         27.03835         9.56990         0.80344
C         28.26368        11.73066         0.85617
C         27.00354        12.44068         1.04202
C         28.25272        14.69696         0.90209
C         26.96880        13.95134         1.28946
C         28.16374        16.04656         0.26229
C         26.94865        16.67463         0.10684
C         28.12935        18.75412        -0.73653
C         26.83772        18.04816        -0.42375
C         28.17647        20.25096        -0.49450
C         26.86690        20.98374        -0.66657
C         28.16018        23.09705        -1.13716
C         26.89261        22.38615        -0.85243
C         28.16174        24.53581        -1.32575
C         26.82284        25.15906        -1.65890
C         28.15224        27.43832        -1.46993
C         26.86665        26.72549        -1.86228
C         28.15795        28.85669        -1.51635
C         26.89352        29.59292        -1.60992
C         28.16274        31.76050        -1.52796
C         26.90369        31.06720        -1.94074
C         28.16790        33.18975        -1.07259
C         26.92930        33.97303        -1.47406
C         28.18766        36.12923        -1.34648
C         26.92869        35.34477        -1.44802
C         28.16131        37.46960        -0.73227
C         26.80927        37.95360        -0.22706
C         28.08900        40.25250         0.00081
C         26.80147        39.48726         0.27692
C         28.14767        41.63741         0.08495
C         26.92343        42.40863        -0.13911
C         28.19820        44.53812        -0.04682
C         26.98022        43.86866        -0.14435
C         28.24447        46.00039        -0.06563
C         26.95192        46.72882        -0.10620
C         28.21768        48.97988         0.13249
C         26.92271        48.23625         0.07263
C         28.29005        50.29468         0.75148
C         27.08575        50.89751         1.34990
C         28.32934        53.13026         1.18007
C         27.11489        52.37926         1.58452
C         28.23813        54.53066         1.08556
C         26.99438        55.23220         1.08365
C         26.96395        56.62795         0.82118
C         29.45560        12.43424         0.72388
C         30.69334        14.60217         0.16466
C         29.52160        13.90169         0.70949
C         30.67736        15.96785        -0.05997
C         29.40398        16.70572        -0.13273
C         30.66404        18.61679        -1.15521
C         29.40008        18.01697        -0.55366
C         30.63424        20.14722        -1.31588
C         29.33931        20.91301        -1.19329
C         30.61744        23.03374        -1.57916
C         29.34742        22.38850        -1.21032
C         30.61774        24.55456        -1.58646
C         29.33788        25.26357        -1.41360
C         30.61563        27.41134        -1.39287
C         29.36768        26.71620        -1.43191
C         30.63023        28.84754        -1.42383
C         29.40243        29.54297        -1.51660
C         30.71047        31.76639        -1.61147
C         29.40632        31.01584        -1.68347
C         30.65869        33.23507        -1.36694
C         29.47993        33.90358        -1.32306
C         30.72575        36.09723        -0.96537
C         29.49314        35.38427        -1.35920
C         30.63419        37.46143        -0.61542
C         29.35962        38.08485        -0.38616
C         30.57970        40.14086         0.62556
C         29.30807        39.44556         0.23397
C         30.57774        41.63078         0.58675
C         29.40922        42.34031         0.31671
C         30.62634        44.50722         0.27750
C         29.43910        43.80217         0.18309
C         30.73802        45.94495        -0.17298
C         29.43419        46.69126        -0.03042
C         30.74711        48.84933         0.44811
C         29.51642        48.17361        -0.01391
C         30.73512        50.22999         0.64457
C         29.51922        50.98760         0.77208
C         29.51757        52.40820         0.96265
C         31.89749        16.70600        -0.17758
C         33.07168        18.84333        -0.44283
C         31.91320        18.06403        -0.51609
C         33.08839        20.23911        -0.73410
C         31.88544        20.92993        -1.14984
C         33.09301        23.08847        -1.13217
C         31.88501        22.31380        -1.28690
C         33.08478        24.49387        -1.20135
C         31.87830        25.27625        -1.33671
C         33.15796        27.43239        -1.40627
C         31.85002        26.67180        -1.31530
C         33.08684        28.88376        -0.99612
C         31.88772        29.58561        -1.24556
C         33.13643        31.70203        -1.03912
C         31.93040        31.00934        -1.26047
C         33.21908        33.16988        -1.30648
C         31.94540        33.97320        -1.41680
C         33.18850        36.07065        -0.72428
C         31.95217        35.40910        -1.05767
C         33.18086        37.48949        -0.51502
C         31.89384        38.30577        -0.60075
C         33.14888        40.16858         0.59858
C         31.88380        39.31040         0.57174
C         33.13309        41.63297         0.87346
C         31.81866        42.34995         0.94069
C         33.15117        44.55036         0.61374
C         31.84580        43.85080         0.75505
C         33.13764        45.95117         0.57912
C         31.93495        46.67977         0.41751
C         31.92028        48.05806         0.61445
C         34.26104        20.97490        -0.54779
C         35.48696        23.06495        -0.42007
C         34.31299        22.38582        -0.74412
C         35.62324        24.49507        -0.63708
C         34.35419        25.22502        -1.05686
C         35.41015        27.37451        -0.10302
C         34.23814        26.66930        -0.68140
C         35.47342        28.85018        -0.22985
C         34.26401        29.56997        -0.59893
C         35.48607        31.70883        -0.20881
C         34.29046        30.99180        -0.62533
C         35.49673        33.09660        -0.19591
C         34.53728        33.89898        -1.04230
C         35.57783        36.01444        -0.15898
C         34.38972        35.34136        -0.57751
C         35.57962        37.43677        -0.01280
C         34.37730        38.15312        -0.21899
C         35.63468        40.29038         0.39635
C         34.37288        39.65880        -0.14869
C         35.59637        41.70660         0.56383
C         34.38649        42.40864         0.62542
C         34.35032        43.81864         0.60840
C         36.70555        25.26638         0.02605
C         37.76195        27.37328         0.87636
C         36.63927        26.60018         0.22179
C         37.94917        28.72248         0.15221
C         36.65241        29.51002         0.04706
C         37.86994        31.59783         0.46499
C         36.67957        30.95148         0.13692
C         37.89013        33.04444         0.68238
C         36.63270        33.82692         0.35336
C         37.95586        35.94217         0.57736
C         36.74565        35.28165         0.17490
C         37.93823        37.37394         0.66957
C         36.78969        38.11114         0.40079
C         36.77968        39.54138         0.56964
C         39.09435        29.50473         0.73245
C         40.22501        31.62581         1.31859
C         39.08316        30.86668         0.79476
C         40.29049        32.97156         1.26854
C         39.21944        33.75463         0.54504
C         39.11512        35.21425         0.87739
O         16.28862        40.48031        -2.34401
O         12.79552        24.62981        -1.06483
O         19.39338        39.34150        -2.77163
O         29.18340        14.60897         2.02226
O         30.16372        31.43072        -2.93315
O         14.96532        35.96836        -3.00420
O         21.62064        23.11404         1.85089
O         10.00524        31.21309        -2.40679
O         20.18997        55.31585         2.86562
O         22.78374        12.16315         3.03417
O         19.59073        46.99680         2.43000
O         33.38873        40.64508         1.94888
O         24.34301         5.41409         2.36983
O         16.41664        20.83240         2.46013
O         26.59060        52.79966         2.88276
O         32.71368        33.57675        -2.62413
O         26.75075        47.63734        -1.24990
O         24.87585         9.95086        -0.30535
O         35.37538        24.91733        -2.04026
O         26.93428        39.46302         1.67026
O         20.07306        41.76423         0.85150
O         17.35001        17.36511        -0.22085
O         15.29127        37.62908         0.14151
O         22.31491        29.82274         0.85083
O         15.15998        33.32654        -2.92254
O         16.72322        43.58249        -1.66809
O         27.30719        18.24789        -1.82294
O          9.82602        29.46050         0.80769
O         20.53243        49.66823        -0.01443
O         26.90392        26.99396        -3.23555
O         13.84188        27.42801         1.43509
O         17.63433        29.57445         1.09365
O         34.25667        26.92895         0.74879
O         31.69129        43.24235         2.09575
O         16.31163        26.93297        -1.37828
O         28.95859        35.98440        -2.60025
O         23.81376        56.63652        -0.78614
O         23.43317        29.16545        -2.55039
O         18.93008        22.66952        -0.75848
O         24.25633        40.27118        -2.30940
O         24.36991        34.59829        -3.12042
O         28.93336        48.88542        -1.14772
O          9.68935        34.51235         0.71575
O         12.10486        30.80600         0.55970
O         21.69235        17.18592        -0.53329
O         25.40120        27.25762         0.17361
O         30.62993        23.77141        -2.84083
O         29.79694        20.43864        -2.49623
O         29.71253        39.55436         1.64724
O         25.20019        16.68978         1.81704
O         26.52769        50.14361         2.48271
O         13.87295        31.02660        -2.52011
O         12.59472        41.86033         1.17435
O         37.01301        33.47308         1.75184
O         18.92697        16.58612         2.80869
O         26.96014        31.16410        -3.41298
H         27.61589        30.50858        -3.73755
O         20.83889        33.55468         0.65983
H         20.07656        33.06730         1.06634
O         24.72020        40.35393         1.18894
H         25.40267        40.15854         1.89844
O         26.05093        36.60869        -3.23220
H         25.77593        35.86137        -3.81304
O         19.54185        52.26397         0.05362
H         18.96039        51.53467        -0.25260
O         23.30683        53.20402         3.36405
H         24.24112        53.23013         3.66249
O         18.58092        42.03328        -2.38837
H         17.79711        41.72304        -2.89808
O         28.10728        33.07709         0.40835
H         27.18476        32.85313         0.65979
O         34.24127        40.16679        -1.51056
H         34.98801        39.81536        -2.03860
O         22.04370        13.53276        -0.19502
H         21.95889        14.38334        -0.67817
O         31.85636        39.07925        -1.82489
H         31.81809        38.46110        -2.58443
O         13.15124        23.63330         2.45165
H         13.37435        22.84496         2.98981
O          8.20976        28.64833        -2.40277
H          7.39009        28.18720        -2.67697
O         20.07558         5.50651         0.21996
H         20.58482         5.83941        -0.54702
O         26.51516        24.60065        -2.96009
H         26.75361        25.34922        -3.59238
O         18.89755        56.43214        -0.45048
H         19.59128        55.98865        -0.98102
O         31.01130        45.89537        -1.61877
H         30.78463        46.77251        -1.99609
O         26.76199        14.15622         2.70136
H         27.65534        14.16958         3.11762
O         39.53955        33.67590        -0.89071
H         40.39944        34.12507        -1.03120
O         22.07095        52.73196        -0.01787
H         21.27254        52.32648        -0.43739
O         23.31711        14.90216         2.98858
H         24.13385        15.42402         3.16078
O         20.81888        52.92845         3.44927
H         20.52718        53.79415         3.82849
O         23.99864        25.00785        -2.37777
H         24.82282        24.78629        -2.89261
O         16.09086        41.41146         1.17783
H         15.40645        40.79654         1.51717
O         19.11482        30.96317        -2.47421
H         19.88652        30.56653        -2.93162
O         24.77870        42.86585        -2.28790
H         24.75339        41.99511        -2.75596
O         18.21828        39.95837         0.64657
H         18.93677        40.45001         1.11848
O         25.77815        14.19425        -0.82299
H         25.66156        13.22538        -0.92850
O         33.53066        27.44135        -2.81455
H         32.78090        27.80475        -3.33124
O         31.94397        38.47291         1.73687
H         31.99184        39.06257         2.52119
O         20.12359        18.73189         2.74654
H         19.54381        18.26948         3.39386
O         16.88790        50.65892         3.52713
H         17.82455        50.64446         3.85437
O         38.98422        26.64571         0.82971
H         39.28238        26.66270        -0.10564
O         26.17216        24.97576         0.65241
H         25.42046        24.84237         1.26673
O         38.33645        28.35309        -1.21146
H         38.48376        29.17961        -1.71808
O         18.48028        32.12896         0.94056
H         18.34094        31.25171         1.38251
O         22.87422        48.98494        -0.76752
H         23.59145        49.48482        -1.20974
O         11.03146        20.36667         0.03655
H         11.32146        20.53286        -0.88370
O         28.52017        20.39076         0.92791
H         27.71597        20.21854         1.46264
O         26.61869        37.14676         0.96638
H         26.76477        37.80162         1.72057
O         22.31695        47.88909         2.66862
H         21.54834        47.40995         3.05789
O         35.22254        34.01358        -2.33286
H         34.51292        34.06796        -3.01698
O         19.61028        50.68253         3.41824
H         20.21750        51.38325         3.77638
O         17.87620        14.37141         3.30036
H         18.49460        14.96056         3.79052
O         30.69908        18.06593        -2.50444
H         30.08033        18.61007        -3.04657
H          4.81773        31.22700        -0.20870
H          4.85607        33.68026        -0.13741
H          7.35063        26.77721        -0.35028
H          6.01704        29.06562        -0.41848
H          6.07732        35.81860        -0.32431
H          7.31121        38.00710        -0.59685
H          9.90116        22.55881         0.29447
H          8.59173        24.72816         0.21294
H          8.56898        40.12782        -0.48434
H          9.77479        42.26261        -0.51577
H         12.44138        18.37581         0.74265
H         11.56078        20.82561         1.96354
H         11.10267        44.52853        -0.14250
H         12.34007        46.54982         0.53130
H         14.92742        14.03920         0.73375
H         13.66985        16.23949         0.73288
H         13.57807        48.61576         0.99170
H         14.77557        50.64569         1.56951
H         17.40805         9.70759         1.17936
H         16.19678        11.87120         0.78925
H         16.03435        52.84324         1.89690
H         17.23888        55.00020         1.65245
H         20.09835         5.56269         2.26998
H         18.66839         7.57421         1.34274
H         18.63743        57.24903         1.42042
H         19.80731        59.23342         0.65894
H         23.27292         2.14775         0.57763
H         21.29298         3.28057         1.21080
H         23.20526        62.61145         0.26639
H         21.05240        61.38581         0.54541
H         25.37112         3.21719         0.03646
H         26.65786         5.67197        -0.05760
H         26.62006        59.28175         0.34981
H         25.35993        61.37665         0.14739
H         27.90742         7.61236         0.53343
H         29.19159         9.75650         0.72770
H         29.15085        55.10295         0.86068
H         27.91319        57.18273         0.78081
H         30.38508        11.87961         0.52621
H         31.64558        14.05271         0.10492
H         31.68454        50.74341         0.85830
H         30.45941        52.95821         0.81894
H         32.83827        16.21007         0.10778
H         34.00301        18.37906        -0.08278
H         34.08448        46.50103         0.69916
H         32.84220        48.55462         0.95543
H         35.17510        20.45495        -0.22403
H         36.31061        22.51532         0.06046
H         36.54420        42.26246         0.63784
H         35.29971        44.36702         0.50808
H         37.60972        24.72266         0.34266
H         37.50705        27.55651         1.95282
H         38.85267        37.89492         0.98941
H         37.70481        40.03131         0.91024
H         39.98771        28.93864         1.03732
H         41.04369        31.04884         1.77545
H         41.16494        33.50471         1.67258
H         40.02506        35.75825         1.17524
