         467
 CSIRO Nanostructure Databank - Neutral Graphene Oxide Data Set
C         37.80902        49.65008         1.45291
C         36.58375        50.28481         1.60205
C         37.69042        52.43130         1.52592
C         36.52435        51.68421         1.64215
C         40.41707        48.33745         1.11421
C         40.29351        49.71693         1.22407
C         39.01030        50.38891         1.34227
C         40.16676        52.60989         1.21337
C         38.94940        51.81193         1.37030
C         40.11958        54.02438         1.18605
C         42.78836        48.42847         0.46340
C         41.62702        47.71290         0.74674
C         42.85263        49.84225         0.83221
C         41.51869        50.52537         1.23605
C         42.61761        52.73617         0.88397
C         41.42668        51.98467         1.09208
C         42.54019        54.15989         0.91138
C         41.27567        54.77179         1.07048
C         45.07931        45.82835        -0.92667
C         43.94737        46.45773        -0.46710
C         45.13506        48.60729        -0.38975
C         43.95652        47.83384        -0.13479
C         45.11930        50.05878        -0.20479
C         43.96605        50.67726         0.33919
C         45.00313        52.88929         0.23703
C         43.86559        52.08696         0.53141
C         44.96245        54.31521         0.42783
C         43.73880        54.96004         0.75949
C         44.87551        57.12897         0.72722
C         43.72778        56.36521         0.90807
C         47.53806        44.41158        -1.51863
C         47.50319        45.81155        -1.38869
C         46.29577        46.54311        -1.09138
C         47.47996        48.77472        -1.32523
C         46.29776        47.94909        -0.85356
C         47.53340        50.18941        -0.78258
C         46.28998        50.85296        -0.51067
C         47.19910        53.18599        -0.69287
C         46.17071        52.28081        -0.31455
C         47.33659        54.47527        -0.18299
C         46.14586        55.10423         0.28877
C         47.34976        57.27058         0.28849
C         46.10397        56.52179         0.41196
C         47.36915        58.70877         0.24300
C         49.97964        44.30948        -1.21498
C         48.72742        43.69015        -1.50187
C         50.00689        45.71806        -1.05015
C         48.80035        46.50693        -1.36424
C         50.01875        48.60525        -0.59232
C         48.82242        48.01180        -1.23808
C         50.01406        50.01879        -0.33274
C         48.82923        50.77526        -0.62240
C         50.08186        52.91170        -0.14472
C         49.04498        52.17490        -0.73764
C         50.00757        54.41060        -0.14086
C         48.63861        55.18144        -0.20877
C         49.75679        57.34004         0.71339
C         48.56667        56.59652         0.19306
C         49.80552        58.80623         0.31153
C         48.54867        59.42560         0.12095
C         52.43625        41.46240        -1.41304
C         51.24984        42.15583        -1.37401
C         52.43749        44.24283        -0.87627
C         51.20868        43.56119        -1.14405
C         52.39887        45.64272        -0.58053
C         51.20546        46.39390        -0.71592
C         52.39780        48.48786        -0.05946
C         51.17914        47.82797        -0.44250
C         52.35923        49.89318         0.38093
C         51.17141        50.71892         0.11697
C         52.49705        52.81935         0.52928
C         51.22556        52.14306         0.27165
C         52.52706        54.33669         0.53752
C         51.25481        55.16396         0.31924
C         52.04296        57.40848         1.29958
C         51.08401        56.61210         0.70820
C         52.11005        58.84567         1.11493
C         51.02201        59.52891         0.47734
C         52.46025        61.51589         0.28531
C         51.23127        60.90014         0.12671
C         55.01211        39.99824        -1.58968
C         54.92694        41.40745        -1.37315
C         53.69742        42.12349        -1.26648
C         54.94033        44.21060        -0.79384
C         53.67894        43.52494        -0.96507
C         54.95290        45.61897        -0.31788
C         53.62856        46.34010        -0.18143
C         54.86294        48.53064        -0.13769
C         53.61386        47.81254        -0.10581
C         54.90712        49.89691         0.10887
C         53.70735        50.61923         0.55799
C         55.02041        52.73841         0.58880
C         53.68157        52.09734         0.56919
C         55.06835        54.21473         0.69178
C         53.82328        54.96417         0.93571
C         55.20410        57.04534         1.01851
C         54.04015        56.26280         1.33495
C         55.28557        58.41109         1.29524
C         53.31408        59.53490         1.34502
C         54.91817        61.41507         0.88776
C         53.58163        60.83220         0.85219
C         54.98584        62.83740         1.12290
C         57.33544        39.90003        -0.72455
C         56.17488        39.29045        -1.40046
C         57.35349        41.41010        -0.65603
C         56.24396        42.14247        -1.41113
C         57.41095        44.32437        -0.77754
C         56.14024        43.57760        -0.99580
C         57.32725        45.77715        -1.14341
C         56.12655        46.44976        -0.67756
C         57.07957        48.62089        -1.33668
C         56.04066        47.82567        -0.65294
C         57.15386        50.07044        -1.03025
C         56.25329        50.57951         0.07283
C         57.39948        52.77909        -0.19125
C         56.20738        52.07419         0.03503
C         57.43298        54.20883        -0.16685
C         56.18177        54.93050         0.02292
C         57.47338        57.13698        -0.13603
C         56.21556        56.44555         0.13138
C         57.53561        58.56578         0.30344
C         56.28423        59.26721         0.74888
C         57.33238        61.50531         0.30330
C         56.14648        60.68513         0.70222
C         57.36047        63.02857         0.54408
C         56.13485        63.57542         1.13303
C         59.87704        37.12111        -0.41153
C         58.70419        37.80434        -0.69529
C         59.78619        39.91328        -0.13036
C         58.62697        39.19723        -0.54085
C         59.79311        41.37491        -0.12080
C         58.66144        42.07778        -0.49156
C         60.02636        44.17608        -0.60705
C         58.68224        43.55838        -0.56283
C         60.30739        45.39479        -1.18144
C         58.34479        46.48570        -1.72264
C         59.59851        48.71756        -1.94527
C         58.32207        47.94711        -1.90056
C         59.66340        50.06594        -1.64745
C         58.44982        50.79621        -1.22904
C         59.83443        52.80079        -0.69751
C         58.61409        52.12192        -0.61235
C         59.86219        54.22785        -0.56842
C         58.60793        54.91584        -0.42048
C         59.77126        56.91187        -1.09599
C         58.57019        56.35787        -0.53952
C         59.82820        59.03505        -0.84880
C         58.72100        59.42396         0.04595
C         59.85069        61.57847         0.13523
C         58.65757        60.88302         0.21286
C         59.86194        63.00139         0.27298
C         58.68768        63.69730         0.61821
C         60.03557        65.70167         1.08847
C         58.80376        65.05400         1.03062
C         62.29616        35.68410         0.28683
C         62.23349        37.04410         0.39019
C         61.01933        37.79654         0.07196
C         62.11059        39.93243         0.81959
C         60.96879        39.20497         0.20008
C         62.17915        41.40616         0.69560
C         61.03179        42.08394         0.22738
C         62.23219        44.22697         0.49393
C         61.09933        43.48960         0.06561
C         62.12206        45.74424         0.48036
C         61.40031        46.22215        -0.76672
C         62.58366        48.37976        -0.66129
C         61.55776        47.52366        -1.20877
C         62.74286        49.70643        -1.05845
C         60.90096        50.81795        -1.59804
C         62.35680        52.77820        -0.93386
C         61.05784        52.09233        -1.06511
C         62.31562        54.20264        -0.88451
C         61.08814        54.92469        -0.74789
C         62.25623        57.16882        -1.24030
C         61.03613        56.35248        -0.99066
C         62.25964        58.75255        -1.13071
C         61.07613        59.51694        -0.66956
C         62.33953        61.63017        -0.36256
C         61.17487        60.80221         0.13183
C         62.37765        62.99298        -0.20224
C         61.09337        63.79132        -0.11120
C         62.47914        65.78062         0.58300
C         61.22276        65.10791         0.61399
C         62.59396        67.14080         0.99190
C         64.63725        35.53887         1.02111
C         63.53370        34.96593         0.46783
C         64.48079        36.96222         1.58626
C         63.53825        37.77147         0.65997
C         64.62795        39.94908         1.41144
C         63.36207        39.19126         1.16891
C         64.60309        41.41845         1.39703
C         63.35586        42.12036         1.05284
C         64.24973        44.37290         1.93606
C         63.31170        43.55144         1.06443
C         64.39949        45.86323         1.60893
C         63.41580        46.49643         0.72764
C         64.72168        48.60744         0.54855
C         63.53838        47.80841         0.27695
C         64.77130        50.01564         0.18261
C         63.67741        50.62799        -0.48400
C         64.78409        52.81225        -0.32985
C         63.60221        52.06321        -0.67824
C         64.83253        54.24934        -0.68821
C         63.55940        54.99673        -1.01633
C         64.71655        57.23338        -0.81737
C         63.55371        56.50299        -0.97366
C         64.74177        58.70253        -0.80909
C         63.54757        59.40874        -0.87259
C         64.82848        61.63404        -0.92708
C         63.51010        60.88868        -0.86518
C         64.84058        63.04583        -0.50489
C         63.63109        63.72740        -0.25412
C         64.92506        65.79676         0.15582
C         63.67222        65.10515         0.14025
C         64.99264        67.16756         0.53926
C         63.79389        67.81169         0.95276
C         67.26687        32.83224         0.60458
C         66.03919        33.42597         0.59422
C         67.21742        35.55834         1.35172
C         65.89745        34.76567         1.16350
C         67.11967        37.03813         1.59818
C         65.79032        37.73563         1.74834
C         67.00507        39.90224         2.21678
C         65.76835        39.23196         1.65808
C         66.99171        41.43609         2.12788
C         65.76699        42.13415         1.65464
C         67.00292        44.40130         2.08396
C         65.88946        43.58587         1.32910
C         67.03307        45.84948         1.65551
C         65.79909        46.64470         1.70581
C         67.07541        48.74628         1.25183
C         65.82260        48.00704         1.14436
C         67.14327        50.14340         0.83442
C         65.93908        50.79261         0.44745
C         67.12376        52.94403         0.80809
C         65.93033        52.19781         0.19769
C         67.13329        54.44226         0.47624
C         65.96768        55.08889        -0.20187
C         67.26853        57.27427        -0.40377
C         66.02426        56.51233        -0.69566
C         67.15360        58.72997         0.00995
C         65.98636        59.44279        -0.63172
C         67.29350        61.55901        -0.66684
C         66.05165        60.82855        -0.73454
C         67.30551        62.98539        -0.68195
C         66.09011        63.71431        -0.45541
C         67.38609        65.79715        -0.24022
C         66.13760        65.10988        -0.18589
C         67.44619        67.18599         0.12080
C         66.25893        67.85628         0.53111
C         67.55982        69.87731         0.96566
C         66.35508        69.21539         0.94301
C         70.64384        31.64650        -1.06303
C         70.38906        32.84661        -0.38935
C         68.47722        33.58332         0.78089
C         69.64365        35.83890         0.58352
C         68.48812        34.97085         0.87707
C         69.55765        37.21568         0.81459
C         68.23735        37.90708         1.06768
C         69.47930        39.97420         1.73067
C         68.31236        39.27833         1.72497
C         69.44938        41.45057         1.40590
C         68.28580        42.21162         2.00218
C         69.39986        44.27411         1.19765
C         68.25331        43.65212         1.71314
C         69.38224        45.66294         0.89910
C         68.21217        46.42207         1.15808
C         69.55069        48.55845         0.65095
C         68.35182        47.89705         1.18213
C         69.59153        49.99106         0.63924
C         68.41498        50.77696         0.73346
C         69.64196        52.88000         0.38872
C         68.45122        52.22234         0.57102
C         69.73880        54.36327         0.38906
C         68.44632        55.17067         0.48203
C         69.72684        57.18654        -0.10562
C         68.50287        56.56331         0.03764
C         69.78249        58.66792        -0.17964
C         68.49569        59.45773        -0.10651
C         69.75741        61.47924        -0.81454
C         68.52786        60.85254        -0.57091
C         69.74402        62.91534        -1.18102
C         68.53024        63.70072        -0.83588
C         69.80530        65.87010        -0.87032
C         68.56085        65.09311        -0.65818
C         69.90195        67.22372        -0.28785
C         68.70321        67.88498         0.13778
C         70.03086        69.93916         0.58343
C         68.76540        69.23624         0.56963
C         70.12181        71.30089         0.96987
C         72.01101        32.85705        -2.64520
C         71.45704        31.65184        -2.19756
C         71.78126        34.03987        -1.94767
C         70.96702        34.07258        -0.78824
C         72.00009        36.16927        -0.11072
C         70.84168        35.32919        -0.05321
C         71.98254        37.48695         0.22422
C         70.69316        38.17077         0.50982
C         71.99906        40.09057         1.62169
C         70.78438        39.20480         1.67321
C         71.97157        41.44329         1.58074
C         70.74778        42.20611         1.48969
C         71.88970        44.39721         1.21609
C         70.69257        43.56837         1.25804
C         71.85984        45.67815         0.79829
C         70.59332        46.27760         0.22960
C         71.80603        48.44677        -0.27190
C         70.63352        47.79098         0.22080
C         71.96769        49.79696        -0.14431
C         70.90647        50.62460         0.43646
C         72.03750        52.85220        -0.37794
C         70.93711        52.16416         0.31986
C         72.00781        54.19151        -0.61818
C         70.92285        55.02636        -0.17710
C         72.12893        57.15640        -0.65546
C         70.95330        56.43312        -0.25549
C         72.14324        58.51763        -0.87088
C         70.99739        59.33762        -0.66766
C         72.23264        61.47731        -0.95730
C         70.98942        60.74453        -0.83425
C         72.28854        62.82480        -1.09563
C         71.07936        63.62847        -1.34899
C         72.34962        65.79951        -0.79135
C         71.11108        65.12701        -1.20093
C         72.35469        67.10489        -0.42003
C         71.14527        67.86789        -0.20948
C         72.44887        69.96227         0.20915
C         71.22023        69.25364         0.20338
C         72.50790        71.29187         0.58879
C         71.33580        71.96535         0.97640
O         56.92024        40.65128         0.49308
O         57.31674        50.88179        -2.21032
O         49.11644        47.39701        -2.54212
O         60.75731        47.99007        -2.27767
O         67.71529        41.93271         3.31319
O         66.08321        55.10783         1.26858
O         62.01015        50.17251        -2.15534
O         52.98323        50.05113         1.69783
O         66.58463        34.84812         2.45137
O         55.40959        53.42067         1.88549
O         62.21492        58.04544        -2.40056
O         57.21457        48.36887        -2.77275
O         54.34893        45.77545         0.99364
O         59.48087        45.85551        -2.21502
O         71.34454        51.48932         1.55078
O         57.90421        44.13609         0.60146
O         58.64934        58.68613         1.32891
O         49.50165        54.97789        -1.38156
O         69.30500        59.27268         1.10486
O         54.31376        58.95932         2.14673
O         70.31494        63.18303        -2.50951
O         53.04895        56.87901         2.09161
O         67.87749        48.45219         2.44014
O         64.17033        44.09392         3.19280
O         70.35313        65.81118        -2.23415
O         48.15943        52.79273        -1.62384
O         52.21695        54.94855        -0.78440
O         64.84203        46.56298         2.79523
O         66.58946        37.31270         2.90725
O         64.05185        61.40762        -2.14004
O         62.36878        39.41527         2.19509
O         69.26560        54.92967         1.66256
O         69.62663        32.77766         0.77132
O         57.09610        62.45369        -0.78505
O         66.94623        56.87174        -1.78374
O         55.69277        55.75873        -1.07149
O         64.46580        54.49788        -2.07341
O         59.58371        58.08461        -1.83570
O         42.50803        50.10422         2.23051
O         63.87430        36.84806         2.87886
H         64.59665        36.69149         3.52679
O         65.88005        43.83303        -0.03765
H         65.64868        43.01860        -0.52967
O         61.24876        46.11173         1.59820
H         61.64613        45.75204         2.42110
O         47.19610        48.99916        -2.74405
H         47.77868        48.37728        -3.24689
O         70.35415        38.97739        -0.69514
H         70.61483        38.44897        -1.48028
O         66.80942        58.69473         1.42339
H         67.66129        58.71465         1.92225
O         66.96207        39.59016         3.63486
H         67.36203        40.35342         4.11454
O         70.53700        45.87495        -1.18388
H         70.52169        44.89418        -1.20491
O         61.47575        60.45491         1.51455
H         61.38708        61.26179         2.06312
O         60.85209        64.17495        -1.52113
H         59.98784        64.63858        -1.55294
O         69.11271        41.45703        -0.03813
H         69.69219        40.78061        -0.46767
O         66.92337        52.84405         2.24102
H         66.37137        53.61147         2.51376
O         66.76588        44.32336         3.48669
H         65.78780        44.38413         3.66848
O         56.93801        50.19329         1.31320
H         56.40536        50.52442         2.06839
O         67.74907        38.26996        -0.28289
H         68.48091        38.78247        -0.70902
O         56.70937        42.13939        -2.81296
H         56.00150        42.53432        -3.36509
O         70.89288        38.39880         2.86969
H         70.79890        38.98415         3.64942
O         64.20751        37.92114        -0.62344
H         64.24556        37.03815        -1.04864
O         49.41433        57.42682         2.18183
H         50.08995        58.00125         2.60536
H         37.83545        48.55254         1.43372
H         35.66414        49.69051         1.69201
H         37.61272        53.52581         1.56006
H         35.55780        52.19211         1.76369
H         39.52988        47.69596         1.20081
H         39.16213        54.55293         1.27547
H         41.59419        46.62787         0.58271
H         41.19153        55.86621         1.07381
H         45.03189        44.75571        -1.15111
H         43.03303        45.86538        -0.33889
H         44.81141        58.21922         0.84471
H         42.79774        56.88382         1.17489
H         46.60312        43.84602        -1.62940
H         46.41539        59.25177         0.19303
H         48.67464        42.60320        -1.64413
H         48.50180        60.51182        -0.04504
H         52.41005        40.38011        -1.59749
H         50.31477        41.60243        -1.53329
H         52.58981        62.54620        -0.07597
H         50.41252        61.46172        -0.34471
H         54.11964        39.44770        -1.92436
H         54.05799        63.32330         1.46082
H         56.19888        38.22176        -1.65628
H         56.12069        64.60356         1.52125
H         59.88810        36.03134        -0.53984
H         57.82225        37.23604        -1.01995
H         60.05986        66.71519         1.51244
H         57.90717        65.59716         1.35895
H         61.41289        35.08732         0.02419
H         61.70156        67.68557         1.32707
H         63.54478        33.91295         0.15157
H         63.80987        68.86516         1.26025
H         67.37257        31.77680         0.31716
H         65.16187        32.86605         0.24373
H         67.57536        70.92272         1.29967
H         65.45644        69.75958         1.26014
H         70.20611        30.71250        -0.68766
H         69.22014        71.85243         1.26697
H         72.63942        32.87084        -3.54594
H         71.65770        30.71639        -2.73698
H         72.22562        34.97350        -2.32112
H         72.95352        35.71108        -0.41248
H         72.90416        38.08355         0.17745
H         72.97273        39.58756         1.72122
H         72.92774        41.98734         1.60197
H         72.84014        43.96425         1.56028
H         72.78396        46.27434         0.79373
H         72.61501        47.84036        -0.70273
H         72.92116        50.26485        -0.42465
H         72.93384        52.27698        -0.64735
H         72.86755        54.65667        -1.12007
H         73.06307        56.59955        -0.80961
H         73.08122        58.97927        -1.20928
H         73.17429        60.92639        -0.82628
H         73.26761        63.32296        -1.06295
H         73.29615        65.24158        -0.79883
H         73.31956        67.56675        -0.17177
H         73.37543        69.46439        -0.10548
H         73.46942        71.82350         0.58220
H         71.38344        73.02096         1.27737
