         404
 CSIRO Nanostructure Databank - Neutral Graphene Oxide Data Set
C          1.33397         2.11672         0.40780
C          1.32188         3.53038         0.14519
C          2.48560         1.38920         0.31610
C          2.41718         4.18801        -0.34994
C          1.19938         6.36578        -0.59156
C          1.17280         7.75220        -0.66637
C          2.41355         5.64256        -0.54080
C          2.36540         8.50747        -0.63342
C          1.20044        10.71976        -0.55534
C          1.21425        12.13616        -0.61461
C          2.36800         9.97643        -0.62790
C          2.38518        12.85943        -0.76574
C          1.12866        15.16566        -0.72358
C          1.16345        16.50075        -0.54148
C          2.36355        14.34787        -0.89119
C          2.41869        17.25220        -0.26796
C          2.51347        18.71266        -0.46607
C          3.71892         2.01757        -0.08712
C          3.61609         3.35752        -0.79224
C          4.92111         1.37350         0.04240
C          4.93371         4.13864        -0.76276
C          3.62385         6.37968        -0.59870
C          3.58730         7.78991        -0.60349
C          4.93038         5.66306        -0.69344
C          4.83553         8.55853        -0.40278
C          3.62608        10.69585        -0.74214
C          3.64655        12.15143        -0.82809
C          4.82499        10.00236        -0.70997
C          4.88195        12.83039        -0.84592
C          3.66830        15.05755        -0.72614
C          3.71239        16.49063        -0.29965
C          4.91470        14.27059        -0.52603
C          4.98821        17.21373        -0.49303
C          3.71222        19.34535        -0.50875
C          4.98738        18.63984        -0.48404
C          6.19020         2.05213        -0.14637
C          6.16263         3.44565        -0.35927
C          7.41843         1.34141        -0.11866
C          7.38894         4.21660        -0.21073
C          6.18798         6.36578        -0.39227
C          6.13265         7.82921        -0.21686
C          7.41030         5.68613        -0.40682
C          7.42618         8.58105        -0.33395
C          6.08587        10.68898        -1.02629
C          6.14464        12.15919        -0.96343
C          7.39770         9.94790        -0.93589
C          7.38215        12.82548        -0.96820
C          6.20324        15.01823        -0.55981
C          6.18770        16.50432        -0.62196
C          7.41394        14.32821        -1.14923
C          7.42954        17.18090        -0.61122
C          6.21055        19.31638        -0.49950
C          7.44411        18.60845        -0.49919
C          8.66620         1.97513        -0.30710
C          8.69764         3.45261        -0.22789
C          9.89373         1.29230        -0.36763
C          9.88432         4.18270        -0.75756
C          8.67794         6.34581        -0.40604
C          8.70831         7.81386        -0.38166
C          9.90983         5.66415        -0.62980
C          9.92230         8.50226        -0.82205
C          8.64745        10.72005        -0.90480
C          8.64308        12.11240        -0.96688
C          9.88581         9.94312        -1.05630
C          9.91130        12.84187        -0.84901
C          8.68802        15.01268        -0.71491
C          8.66760        16.43561        -0.56030
C          9.89644        14.26984        -0.66291
C          9.85932        17.14318        -0.28023
C          8.68425        19.28239        -0.34199
C          9.88950        18.57244        -0.19674
C         11.14537         1.96586        -0.48581
C         11.16675         3.39434        -0.88588
C         12.36001         1.32731        -0.27728
C         12.43852         4.14206        -0.86137
C         11.11763         6.35245        -0.81009
C         11.12649         7.80163        -0.87328
C         12.36826         5.61226        -1.26746
C         12.36104         8.54845        -0.74501
C         11.21423        10.71041        -1.00119
C         11.14217        12.15650        -0.73999
C         12.40327         9.93327        -0.63290
C         12.36971        12.82868        -0.47318
C         11.13063        14.94692        -0.42816
C         11.08827        16.37946        -0.06419
C         12.34839        14.24787        -0.41614
C         12.37096        17.15643         0.11914
C         11.13364        19.28038        -0.00547
C         12.36071        18.64042         0.09713
C         13.61858         2.01604        -0.39746
C         13.62078         3.46867        -0.64739
C         14.80869         1.33452        -0.27931
C         14.90138         4.15863        -0.53942
C         13.65309         6.36578        -0.88198
C         13.53396         7.75570        -0.33908
C         14.91155         5.63642        -0.56632
C         14.76785         8.46849         0.13463
C         13.59255        10.64446        -0.20826
C         13.59081        12.08356        -0.19242
C         14.77101         9.94256         0.11046
C         14.77110        12.74895         0.20348
C         13.63149        14.97291        -0.35492
C         13.63686        16.47288        -0.24654
C         14.85835        14.21625         0.05262
C         14.91319        17.20655         0.06268
C         13.60519        19.31673         0.29914
C         14.83363        18.64772         0.41237
C         16.12377         1.98918        -0.60943
C         16.08274         3.47751        -0.34447
C         17.32917         1.29363        -0.04280
C         17.30263         4.17322         0.01277
C         16.07450         6.35194         0.01594
C         16.05832         7.74591         0.17871
C         17.27925         5.62877         0.18822
C         17.24284         8.47119         0.47849
C         15.98553        10.62300         0.40843
C         15.97211        12.04535         0.50812
C         17.21099         9.90575         0.60048
C         17.17635        12.74162         0.86613
C         15.85142        14.98751         0.89949
C         16.09075        16.42239         0.45243
C         17.12009        14.19041         1.18576
C         17.25852        17.11062         0.85410
C         16.05809        19.29585         0.68787
C         17.26860        18.58320         0.82841
C         18.47289         1.98408         0.29515
C         18.44151         3.44016         0.31710
C         19.71917         1.29662         0.56574
C         19.64011         4.15236         0.79548
C         18.45349         6.35065         0.47991
C         18.47060         7.76007         0.61357
C         19.72292         5.60772         0.49078
C         19.69104         8.47613         0.92626
C         18.41338        10.61267         0.87786
C         18.39049        12.05536         1.01879
C         19.62070         9.88216         1.08317
C         19.63866        12.79270         1.20955
C         18.40524        14.94706         1.37583
C         18.41455        16.41406         1.23063
C         19.67063        14.20252         1.26241
C         19.66581        17.12603         1.65797
C         18.49666        19.25428         0.97886
C         19.71147        18.56727         1.20274
C         20.91576         1.94750         0.83914
C         20.90811         3.40965         1.07704
C         22.17467         1.28613         0.90112
C         22.19229         4.15361         1.11114
C         20.99808         6.33104         0.75450
C         20.94486         7.77604         1.04564
C         22.20675         5.55599         1.11053
C         22.16009         8.41632         1.33298
C         20.81948        10.62298         1.50119
C         20.87076        12.08376         1.30720
C         22.13821         9.86866         1.60934
C         22.10501        12.76235         1.31130
C         20.90195        14.91927         1.28048
C         20.92914        16.34922         1.33555
C         22.13309        14.19112         1.24458
C         22.14695        17.03569         1.27104
C         20.94248        19.21286         1.16130
C         22.17605        18.49195         1.24786
C         23.37994         1.98248         1.07931
C         23.40257         3.42393         1.19568
C         24.63309         1.28916         1.09747
C         24.63960         4.12493         1.33128
C         23.42330         6.26560         1.28160
C         23.40471         7.70689         1.35736
C         24.63310         5.54019         1.42831
C         24.64617         8.41104         1.47096
C         23.36831        10.63324         1.42322
C         23.36276        12.03075         1.31799
C         24.62160         9.87979         1.57671
C         24.58975        12.75328         1.14361
C         23.37311        14.89096         1.19869
C         23.38711        16.31419         1.18576
C         24.60900        14.15783         1.10762
C         24.62381        17.01778         1.12784
C         23.39764        19.15875         1.21112
C         24.64002        18.45596         1.16696
C         25.83641         1.95827         1.16817
C         25.88228         3.39212         1.26704
C         27.12591         1.17411         1.23973
C         27.11394         4.07186         1.13882
C         25.88710         6.28256         1.60943
C         25.88028         7.74445         1.43852
C         27.20366         5.51745         1.38856
C         27.14395         8.44002         1.27728
C         25.91303        10.61556         1.41331
C         25.83237        11.98407         0.77592
C         27.14008         9.83443         1.19958
C         27.12104        12.75180         0.89151
C         25.85154        14.87760         0.98496
C         25.85587        16.30114         1.02553
C         27.09344        14.17310         0.87562
C         27.09280        17.01469         0.97094
C         25.86369        19.14274         1.14142
C         27.10222        18.45207         1.04938
C         28.34153         1.95231         0.78867
C         28.30917         3.38509         0.77604
C         29.51429         1.28515         0.50992
C         29.46999         4.12433         0.39650
C         28.36202         6.26771         0.86624
C         28.36136         7.71263         0.93513
C         29.43443         5.56402         0.33389
C         29.53857         8.40335         0.57010
C         28.37469        10.60589         1.11746
C         28.33203        12.05865         0.86248
C         29.66493         9.84553         0.81106
C         29.56293        12.74584         0.64204
C         28.32441        14.88128         0.78857
C         28.32140        16.31250         0.83689
C         29.54637        14.17011         0.60893
C         29.55266        17.02030         0.76168
C         28.33338        19.13963         1.03639
C         29.56491        18.45277         0.89690
C         30.71698         1.99852         0.20280
C         30.67323         3.42626         0.10728
C         31.94151         1.31900         0.07511
C         31.87589         4.14389        -0.22294
C         30.53203         6.29082        -0.41198
C         30.66114         7.74960        -0.01921
C         31.85675         5.56271        -0.39758
C         31.79714         8.47097        -0.40175
C         30.78682        10.60694         0.24386
C         30.76483        12.02986         0.32373
C         31.87998         9.90900        -0.30312
C         31.93675        12.75458        -0.05377
C         30.76443        14.88699         0.40213
C         30.76848        16.31442         0.53021
C         31.95110        14.19087         0.05932
C         31.99569        17.01848         0.44851
C         30.80606        19.13028         0.89887
C         32.02193        18.43702         0.69834
C         33.14672         2.01762        -0.17705
C         33.07689         3.42888        -0.41148
C         34.40683         1.36602        -0.03911
C         34.26585         4.14626        -0.86234
C         33.02967         6.27248        -0.71337
C         32.94894         7.73213        -0.96478
C         34.26774         5.61106        -0.89498
C         34.23184         8.48942        -1.25701
C         33.06537        10.64247        -0.70357
C         33.06066        12.06529        -0.56387
C         34.25960         9.95947        -1.07089
C         34.20558        12.85758        -1.03511
C         33.16164        14.91876        -0.15230
C         33.19463        16.32171         0.11780
C         34.32798        14.26988        -0.64148
C         34.43534        17.00651         0.07245
C         33.27638        19.08263         0.76759
C         34.47464        18.38049         0.50695
C         35.62198         2.06554        -0.11658
C         35.62418         3.41303        -0.71241
C         36.84022         1.54925         0.36951
C         36.81485         4.25537        -0.59884
C         35.50012         6.32318        -1.08056
C         35.50168         7.73667        -1.21269
C         36.75911         5.63079        -0.93324
C         36.72420         8.45990        -1.31710
C         35.50672        10.63305        -1.21977
C         35.52645        12.11417        -1.34847
C         36.70244         9.90734        -1.34369
C         36.76373        12.89197        -1.29558
C         35.54869        14.96963        -0.78451
C         35.62155        16.33407        -0.34968
C         36.77264        14.30724        -1.20106
C         36.88248        16.99779        -0.28932
C         35.73543        18.96664         0.71521
C         36.92041        18.28064         0.37397
C         38.03030         2.31581         0.35820
C         38.01350         3.66914        -0.13569
C         39.24930         1.80413         0.87823
C         39.22352         4.42449        -0.18657
C         37.99214         6.35698        -1.05533
C         37.95012         7.75127        -1.34943
C         39.22674         5.70892        -0.77844
C         39.19746         8.41791        -1.77490
C         37.98594        10.62781        -1.39133
C         38.02610        12.13405        -1.32880
C         39.17178         9.90848        -1.95921
C         39.17199        12.83687        -1.97587
C         37.98922        15.07945        -1.36124
C         38.07012        16.41896        -0.85916
C         39.10944        14.36033        -2.04143
C         39.27961        17.25446        -0.81079
C         38.16189        18.85467         0.69706
C         39.33859        18.36588         0.10412
C         40.39750         2.58894         0.93446
C         40.41733         3.89173         0.40342
C         41.55350         4.77732         0.55931
C         40.58776         6.26809        -1.15619
C         40.52773         7.71324        -1.65329
C         41.60597         5.96765        -0.08389
C         41.74172         8.56201        -1.64120
C         40.46974        10.64721        -2.13309
C         40.48387        12.14035        -2.06793
C         41.71687         9.88406        -1.90496
C         41.60483        12.85096        -2.38134
C         40.40167        14.97344        -2.41519
C         40.41555        17.15162        -1.65261
C         41.55652        14.27226        -2.58228
C         41.57035        17.92142        -1.50420
C         40.54439        19.10001         0.30986
C         41.65706        18.87195        -0.47333
O         39.61640        10.27404        -3.29119
O         39.81212         7.74637        -2.93404
O          5.68055        14.52187         0.71019
O          8.20372         8.48479         0.89186
O         29.33123        10.25297         2.17893
O          3.13742        14.83666        -2.06938
O         10.30948         3.68077        -2.05557
O         26.73995         5.87010         2.73224
O         40.40605        16.31973        -2.77418
O         10.62271        10.33184        -2.27788
O         13.80039         7.87078         1.09998
O         17.59694        14.47069         2.54702
O          5.37676         8.27921         0.96880
O         38.33598        11.34460        -0.12869
O         34.95150         3.51203        -1.99564
O          8.16375         3.91891         1.03699
O         20.00560         3.81903         2.18145
O          6.71291        10.05333        -2.22722
O         21.36001        10.21869         2.81040
O         20.57945         5.97375        -0.64635
O          3.06506        16.77525         0.97978
O         38.69174        13.50339        -3.17974
O         14.65390         6.22347        -1.94050
O         33.30600         8.07780        -2.34618
O          5.07882         4.93341        -1.99450
O         34.61353        12.57800        -2.40428
O         25.37414        10.44205         2.74776
O         14.37866        17.06161        -1.33948
O         14.65285        14.57246        -1.34076
O         11.71191        16.59653         1.28636
O         25.69357        11.67785        -0.66358
H         25.65582        12.53027        -1.14780
O          7.30015        14.56868        -2.59405
H          8.01195        14.06405        -3.04203
O         12.28943         5.62622        -2.71614
H         13.21837         5.63408        -3.04803
O         19.61985        17.18311         3.13101
H         20.43493        17.63929         3.43046
O         15.15394        15.14714         2.17278
H         15.85635        15.20115         2.86667
O         41.01190         5.48287        -2.31827
H         40.50880         5.83889        -3.08657
O          3.36449         3.01510        -2.18628
H          3.72880         3.75567        -2.72540
O         16.27189         1.85580        -2.07935
H         15.52814         2.34711        -2.49069
O         30.09895         6.29870        -1.82105
H         30.81114         6.72402        -2.34700
O         27.02131        -0.06421         0.53083
H         26.91633         0.13503        -0.42183
H          0.40706         1.64276         0.75953
H          0.40895         4.08605         0.40448
H          2.50627         0.33229         0.62053
H          0.24487         5.82219        -0.59274
H          0.19908         8.25749        -0.72298
H          0.22644        10.22070        -0.46221
H          0.25077        12.66145        -0.55971
H          0.15502        14.67058        -0.85724
H          0.22028        17.06890        -0.51872
H          1.58110        19.28730        -0.57390
H          4.94225         0.33695         0.41327
H          3.74330        20.43966        -0.62155
H          7.38479         0.24426        -0.04391
H          6.22568        20.41569        -0.45568
H          9.89953         0.19856        -0.24342
H          8.69297        20.38064        -0.27805
H         12.37441         0.25697        -0.02214
H         11.09649        20.37995         0.02323
H         14.79259         0.24710        -0.10804
H         13.58576        20.41037         0.42557
H         17.33833         0.19305        -0.05796
H         16.07217        20.39037         0.80412
H         19.72857         0.20245         0.44411
H         18.52210        20.34855         0.85716
H         22.20697         0.19394         0.76948
H         20.98127        20.29579         0.96657
H         24.63641         0.19132         1.02544
H         23.41114        20.25878         1.19366
H         27.28738         0.89989         2.32224
H         25.86611        20.24196         1.18526
H         29.53851         0.18669         0.55794
H         28.33767        20.23631         1.12335
H         31.97135         0.22958         0.22306
H         30.82665        20.21924         1.05335
H         34.41559         0.31891         0.29855
H         33.32630        20.14626         1.04302
H         36.86193         0.53269         0.78963
H         35.80677        19.97366         1.15081
H         39.26822         0.77927         1.27610
H         38.19991        19.76562         1.31130
H         41.31082         2.18272         1.39309
H         42.35438         4.48146         1.25393
H         42.46306         6.64078         0.06246
H         42.70666         8.07662        -1.43319
H         42.66245        10.44504        -1.87015
H         42.56606        12.34208        -2.53379
H         42.45875        14.79551        -2.92254
H         42.39847        17.77929        -2.20988
H         40.54568        19.89954         1.06375
H         42.57553        19.45745        -0.33384
