         762
 CSIRO Nanostructure Databank - Neutral Graphene Oxide Data Set
C         22.67721        24.72525        -0.03271
C         21.46428        25.49743        -0.03862
C         22.67786        27.59143         0.66664
C         21.43987        26.81004         0.30258
C         23.01161        28.66562        -0.42550
C         21.94056        29.14441        -1.30899
C         23.46679        30.80630        -2.27133
C         22.22930        30.06568        -2.26509
C         23.73264        32.98590        -3.18611
C         22.56247        33.69600        -3.61425
C         23.78141        35.78460        -3.54408
C         22.51643        35.05583        -3.62821
C         23.74518        37.27270        -3.52004
C         22.84458        37.96287        -4.28521
C         23.65807        40.16042        -3.53867
C         22.78888        39.38909        -4.28614
C         23.67844        41.59135        -3.65529
C         22.51313        42.30898        -4.10311
C         23.82989        44.41785        -4.36958
C         22.54742        43.63397        -4.38993
C         23.64475        45.88828        -3.91179
C         22.34437        46.33371        -3.39928
C         23.33281        48.36618        -2.48018
C         22.21009        47.55170        -2.79593
C         25.01512        23.21511         1.19429
C         25.12895        24.53023         0.54629
C         23.85585        25.30087         0.38830
C         25.10218        27.25896         1.13361
C         23.89249        26.67039         0.79783
C         25.26563        29.38886         0.70896
C         24.23036        29.60395        -0.33203
C         25.52661        31.70129        -0.99811
C         24.37057        30.77101        -1.23582
C         25.83597        32.95941        -1.76124
C         24.85319        33.60272        -2.62401
C         26.20426        35.84775        -2.56408
C         25.00516        35.02573        -3.02552
C         25.82193        37.23482        -2.01732
C         24.65268        37.98415        -2.59176
C         26.04507        40.09889        -2.79154
C         24.63804        39.52523        -2.56488
C         26.19193        41.57026        -3.24658
C         24.87873        42.32919        -3.39249
C         26.19558        44.44559        -3.38255
C         24.92899        43.69992        -3.60343
C         26.19091        45.97533        -3.36157
C         24.86904        46.70681        -3.47451
C         25.75643        48.71738        -2.17913
C         24.64254        47.94523        -2.67928
C         25.61012        50.00341        -1.64766
C         27.27780        23.42232         2.07821
C         26.02831        22.72386         1.95690
C         27.56027        24.60453         1.42766
C         26.44499        25.27736         0.72986
C         27.63054        27.47365         1.08627
C         26.42382        26.75277         0.92936
C         27.72050        28.95541         0.93758
C         26.56153        29.74764         0.47682
C         27.97891        31.72463        -0.15937
C         26.66380        31.09802        -0.14656
C         28.09544        32.99230        -0.67519
C         27.02177        33.65025        -1.42106
C         28.23555        35.80472        -1.18205
C         27.16102        35.08220        -1.66031
C         28.22737        37.28087        -1.09464
C         26.99130        38.03802        -1.48295
C         28.37765        40.21393        -1.66603
C         27.17280        39.40776        -2.09017
C         28.12066        41.69230        -1.53351
C         27.19253        42.36315        -2.42211
C         28.38422        44.49008        -2.06603
C         27.24187        43.72966        -2.61004
C         28.50991        46.02136        -2.18819
C         27.34319        46.76986        -2.75991
C         28.17066        48.81054        -1.37847
C         27.12987        48.16472        -2.23157
C         27.96902        50.15639        -0.96286
C         26.69064        50.73440        -1.13772
C         30.58085        20.32605         2.62674
C         29.43921        21.02480         2.98561
C         30.29056        23.08067         1.89232
C         29.30907        22.36761         2.61528
C         30.10197        24.46904         1.36400
C         28.83588        25.30063         1.46503
C         30.15790        27.38408         1.36876
C         28.85681        26.67706         1.21113
C         30.18150        28.90753         1.33505
C         28.93965        29.61452         0.95524
C         30.37406        31.71513         0.62743
C         28.99283        31.13245         0.80485
C         30.51089        33.03531         0.19072
C         29.41827        33.65032        -0.58887
C         30.69173        35.87859        -0.43236
C         29.50033        35.13010        -0.85648
C         30.69687        37.29984        -0.61545
C         29.51689        37.97889        -0.95905
C         30.69451        40.10121        -0.38004
C         29.54625        39.45468        -1.07523
C         30.65615        41.36024         0.12854
C         28.82311        42.50161        -0.65766
C         30.01921        44.62596        -0.23823
C         29.03878        43.89310        -0.89926
C         30.37470        45.95819        -0.55768
C         29.44324        46.71118        -1.28412
C         30.38859        48.77210        -0.26821
C         29.35270        48.12763        -1.02467
C         30.27507        50.18191        -0.02064
C         29.07459        50.87582        -0.36014
C         30.12841        52.96610         0.32834
C         29.01947        52.26779        -0.11789
C         32.87344        18.89818         1.52630
C         32.87902        20.25956         1.79216
C         31.63581        21.00088         1.99653
C         32.72370        23.10616         1.25141
C         31.53131        22.39189         1.67587
C         32.69148        24.49271         1.05026
C         31.39729        25.20618         0.98868
C         32.64113        27.35602         1.07042
C         31.42644        26.67676         1.10990
C         32.68002        28.81221         1.18366
C         31.48916        29.56641         1.18979
C         32.73758        31.70165         1.23071
C         31.53141        31.00268         1.04230
C         32.84845        33.09648         0.94645
C         31.72797        33.75978         0.36276
C         33.06441        35.84231         0.26814
C         31.82816        35.16596         0.05180
C         33.19072        37.23162        -0.21982
C         31.95296        38.01264        -0.44906
C         33.17753        40.13842        -0.04057
C         31.97556        39.40146        -0.36388
C         33.15005        41.50414         0.21916
C         31.86593        42.23254         0.00508
C         32.94731        44.37190         0.59264
C         31.84152        43.58498         0.63242
C         32.87068        45.85128         0.41733
C         31.65057        46.59512        -0.10483
C         32.64034        48.70249         0.76287
C         31.57122        48.05994         0.13118
C         32.52565        50.14301         1.04374
C         31.36475        50.89488         0.55724
C         32.58220        53.06996         0.85022
C         31.34605        52.30945         0.64083
C         32.60279        54.48588         0.76132
C         35.26545        18.31497         1.76119
C         34.01708        18.07386         1.24397
C         35.33257        20.52346         2.02195
C         34.08020        21.06380         1.71820
C         35.20522        23.08305         0.95197
C         34.00618        22.42215         1.29712
C         35.12727        24.47861         0.50358
C         33.89139        25.24513         0.80582
C         35.14240        27.40844         0.66686
C         33.87792        26.63944         0.81569
C         35.17985        28.81841         1.15292
C         33.93434        29.48692         1.26430
C         35.18532        31.62834         1.90171
C         33.90972        30.91170         1.63884
C         35.17291        33.13151         1.87360
C         34.06095        33.81829         1.18341
C         35.45443        35.90271         1.05063
C         34.19523        35.18062         0.82213
C         35.57024        37.28453         0.73402
C         34.49266        37.96554        -0.02748
C         35.59829        40.20758         0.57775
C         34.52903        39.49259        -0.21734
C         35.54387        41.58573         0.79780
C         34.30744        42.27750         0.55316
C         35.37877        44.44863         1.03577
C         34.24596        43.70134         0.67453
C         35.37015        45.95328         0.85903
C         33.99946        46.63104         0.97732
C         35.05341        48.77849         1.54866
C         33.86733        47.99373         1.09562
C         35.09097        50.21638         1.13012
C         33.82594        50.97252         1.27275
C         35.07723        53.10705         0.94343
C         33.82014        52.40117         0.98090
C         35.04714        54.53853         0.74098
C         33.79732        55.18978         0.71174
C         37.82132        15.72727         0.68923
C         36.62305        16.38266         0.79375
C         37.72966        18.24876         1.82553
C         36.53582        17.66846         1.44313
C         37.80537        20.52736         1.80254
C         36.53667        21.15702         1.63119
C         37.72834        23.07138         0.69838
C         36.46907        22.43620         1.02500
C         37.72611        24.46379         0.48731
C         36.44954        25.18919         0.31183
C         37.70342        27.26589         1.01898
C         36.44280        26.67430         0.47138
C         37.68045        28.74405         1.33163
C         36.40725        29.48933         1.26378
C         37.75425        31.67785         1.69563
C         36.45042        30.95188         1.48061
C         37.73046        33.05168         2.30681
C         36.46601        33.84895         2.08314
C         37.80035        35.91393         1.83997
C         36.58984        35.24789         1.62028
C         37.85602        37.31207         1.60357
C         36.73597        37.99670         1.06260
C         37.97302        40.24047         1.45111
C         36.82884        39.46180         0.83296
C         37.86828        41.70261         1.67629
C         36.67333        42.35505         1.29976
C         37.76524        44.52840         1.75200
C         36.59575        43.78128         1.38482
C         37.67399        45.98628         1.88134
C         36.50019        46.63801         1.59303
C         37.60895        48.90193         1.80035
C         36.35645        48.10359         1.78414
C         37.64634        50.30337         1.51534
C         36.39890        50.98944         1.11955
C         37.53179        53.25952         1.48961
C         36.30061        52.44375         1.17109
C         37.54227        54.47656         0.57110
C         36.27855        55.23392         0.45149
C         37.55881        57.22129        -0.23451
C         36.33594        56.54457        -0.00086
C         40.30992        14.24157         0.43254
C         40.28621        15.59121         0.91326
C         39.08029        16.28077         1.11510
C         40.30834        18.60120         1.47654
C         39.05855        17.66700         1.62797
C         40.25519        20.14421         1.25232
C         38.98673        20.97387         1.21444
C         40.16709        23.00099         0.26114
C         38.97019        22.33124         0.70286
C         40.17919        24.43595         0.25567
C         38.96397        25.17029         0.47842
C         40.19512        27.24147         1.07657
C         38.97826        26.56859         0.76752
C         40.22608        28.62493         1.43191
C         39.00291        29.44806         1.30301
C         40.31384        31.49802         2.22730
C         39.05695        30.91609         1.63732
C         40.35833        33.00917         2.41409
C         39.02852        33.76835         2.53876
C         40.28831        35.94021         2.17056
C         38.98683        35.30010         2.61139
C         40.28744        37.32105         2.03910
C         39.05238        38.01592         1.93229
C         40.31744        40.21803         2.42533
C         39.02472        39.45725         2.13844
C         40.26513        41.71668         2.44400
C         39.01319        42.43620         2.06662
C         40.27395        44.63598         1.85146
C         38.97926        43.85457         2.02135
C         40.25272        46.07075         2.39745
C         38.85545        46.76154         2.39880
C         39.92895        49.04098         2.44314
C         38.71804        48.24009         2.30261
C         40.13015        50.40585         1.89016
C         38.85026        51.09346         1.56168
C         40.09122        53.26464         1.52345
C         38.82826        52.47591         1.43499
C         40.07768        54.66859         0.97552
C         38.83916        55.19647         0.32048
C         40.05243        57.33174        -0.24945
C         38.79907        56.63085        -0.04112
C         40.09841        58.67264        -0.58149
C         42.71260        14.30879         0.06326
C         41.47504        13.61248         0.06152
C         42.77793        15.61174         0.51051
C         41.58250        16.27888         1.05687
C         42.72733        18.50378         0.49152
C         41.59387        17.85175         1.16776
C         42.53330        19.89176         0.01137
C         41.43976        20.78484         0.55963
C         42.41497        22.64588        -0.76763
C         41.34246        22.17448        -0.02803
C         42.56046        24.86808        -0.42986
C         41.38895        25.24934         0.23679
C         42.67865        27.17431         1.09798
C         41.42338        26.54370         0.83117
C         42.58506        28.40977         1.80570
C         41.45430        29.24651         1.75032
C         42.88491        31.53097         1.73811
C         41.59356        30.71154         2.04322
C         42.71001        33.00758         1.50424
C         41.57603        33.69987         1.89675
C         42.67445        35.97693         1.24441
C         41.43145        35.16561         1.65361
C         42.76769        37.39552         1.57622
C         41.47959        38.14519         1.58526
C         42.78297        40.26115         1.98339
C         41.57653        39.53473         2.17647
C         42.82569        41.68692         2.10859
C         41.58216        42.43045         2.44134
C         42.84194        44.62714         2.11831
C         41.54764        43.92435         2.31013
C         42.80598        46.06940         1.64051
C         41.59869        46.76820         2.28075
C         42.95260        48.90994         2.55452
C         41.80275        48.00514         2.79181
C         42.77962        50.40361         2.23924
C         41.44628        51.13707         2.13719
C         42.68959        53.22736         1.20078
C         41.43761        52.59997         1.73458
C         42.63740        54.51059         0.68055
C         41.38633        55.31522         0.62439
C         42.62194        57.31745        -0.44217
C         41.32189        56.55568        -0.23007
C         42.53761        58.76972        -0.60882
C         41.32749        59.38393        -0.73417
C         45.26329        15.78690         0.56464
C         44.01049        16.37915         0.48252
C         45.12572        18.44120        -0.29936
C         43.89579        17.80356         0.23330
C         45.05908        19.88718        -0.67048
C         43.72784        20.55567        -0.60533
C         44.87385        22.68232        -1.11011
C         43.71302        22.00896        -0.80868
C         45.01260        24.92913        -0.84144
C         43.82195        25.50201        -0.23344
C         45.28342        27.26176         0.78581
C         43.92225        26.62015         0.63154
C         45.42465        28.74302         0.86154
C         44.40600        29.53599         1.51269
C         45.18490        31.54959         0.50116
C         44.08024        30.82505         1.17228
C         45.15506        33.03194         0.60473
C         43.85820        33.73393         0.88344
C         45.23905        35.94469         1.02208
C         43.92648        35.23627         0.88611
C         45.19428        37.34429         1.28858
C         43.98798        38.07673         1.52288
C         45.17037        40.26961         1.40726
C         43.99630        39.54347         1.65850
C         45.21920        41.69081         1.49155
C         44.02965        42.40750         1.84651
C         45.30555        44.53312         1.82956
C         44.08244        43.83907         1.91462
C         45.30014        46.00004         1.97641
C         44.13667        46.71708         2.00072
C         45.30404        48.95428         1.63718
C         44.19152        48.18712         2.20963
C         45.19168        50.31129         1.41381
C         43.97598        51.08523         1.62540
C         45.17031        53.07808         0.78364
C         43.93409        52.42840         1.19264
C         45.15667        54.45346         0.24946
C         43.83822        55.17088         0.10317
C         45.09001        57.29420        -0.04424
C         43.88199        56.64669        -0.04307
C         46.46608        16.53672         0.44309
C         47.64676        18.64685        -0.22132
C         46.44531        17.85022         0.01974
C         47.57908        20.05177        -0.41539
C         46.27140        20.72675        -0.40737
C         47.47117        22.98949        -0.82798
C         46.20252        22.21953        -0.63909
C         47.47964        24.45064        -0.89892
C         46.29639        25.25880        -0.53369
C         47.62214        27.35899        -0.36882
C         46.50128        26.55240         0.18372
C         47.57992        28.72453        -0.36499
C         46.49900        29.41332         0.30357
C         47.62013        31.58819         0.05196
C         46.49904        30.86762         0.34869
C         47.69615        33.04239         0.35425
C         46.44020        33.77620         0.77880
C         47.81500        35.84801         1.26885
C         46.44626        35.24556         0.91549
C         47.78235        37.38912         1.23320
C         46.46555        38.09104         1.29199
C         47.66129        40.27251         0.74221
C         46.36774        39.53835         0.93816
C         47.68263        41.68908         1.12757
C         46.47773        42.39875         1.36745
C         47.81569        44.47463         1.78874
C         46.51200        43.80307         1.66371
C         47.88426        46.02645         1.90824
C         46.58418        46.76177         2.05524
C         47.81639        48.84816         1.19870
C         46.59116        48.23673         1.71528
C         47.69278        50.22152         0.69210
C         46.38073        50.96145         0.80904
C         47.65091        53.11713         0.49495
C         46.40289        52.42890         0.73101
C         47.65762        54.52525         0.40648
C         46.40499        55.24485         0.29258
C         46.33052        56.61437         0.14174
C         50.07102        18.82189        -0.28155
C         48.92452        18.04499        -0.22304
C         50.00505        20.22698        -0.37079
C         48.74074        20.85371        -0.52616
C         49.95793        22.98566        -1.06889
C         48.67334        22.29014        -0.77921
C         49.95209        24.49349        -1.26995
C         48.65725        25.15272        -1.07546
C         49.83857        27.35410        -1.64637
C         48.51035        26.62601        -1.36446
C         49.80318        28.86732        -1.60039
C         48.54554        29.59739        -1.15269
C         50.04352        31.70671        -0.71242
C         48.91775        30.82699        -0.19972
C         50.07636        33.09623        -0.44321
C         48.79679        33.89170        -0.24847
C         50.11466        35.92764         0.27014
C         48.96350        35.24265         0.45090
C         50.28483        37.37186         0.71536
C         48.98001        38.14916         0.76247
C         50.07927        40.34764         0.09000
C         48.93812        39.50039         0.63083
C         50.30327        41.58742         0.92074
C         48.98131        42.31857         1.35881
C         50.24788        44.48288         1.10335
C         49.03094        43.76044         1.45768
C         50.25814        45.99201         1.02996
C         49.06193        46.74055         1.43556
C         50.24081        48.80333         0.70395
C         49.02197        48.13508         1.13399
C         50.15029        50.21305         0.29541
C         48.92904        50.99672         0.51382
C         50.16725        53.12323         0.34203
C         48.91060        52.38547         0.41725
C         50.10029        54.55472         0.33356
C         48.90519        55.22072         0.34352
C         52.28997        20.47935         0.51980
C         51.19944        21.04199        -0.16932
C         52.35604        23.22867        -0.32124
C         51.21534        22.40640        -0.55030
C         52.43382        24.63743        -0.79185
C         51.21680        25.28121        -1.13718
C         52.36555        27.38928        -1.62964
C         51.16467        26.66632        -1.47816
C         52.34771        28.85393        -1.92542
C         51.09256        29.65696        -1.71348
C         52.41460        31.77112        -1.29810
C         51.18633        31.07137        -1.23943
C         52.47272        33.10749        -0.85582
C         51.28327        33.79783        -0.54289
C         52.61635        35.94985        -0.26587
C         51.25517        35.32031        -0.54984
C         52.67571        37.38360        -0.10393
C         51.37250        38.09039        -0.07746
C         52.65459        40.32962        -0.13335
C         51.37221        39.58821        -0.16774
C         52.69388        41.69715         0.20737
C         51.52115        42.34308         0.68845
C         52.80884        44.55320         0.92358
C         51.55504        43.75233         1.12563
C         52.74817        46.03125         0.78122
C         51.54918        46.71895         0.89758
C         52.73213        48.87760         0.54261
C         51.48057        48.14694         0.69768
C         52.72221        50.27654         0.41421
C         51.47586        51.00571         0.17119
C         52.66944        53.15721         0.47300
C         51.41128        52.46262         0.34450
C         53.34265        21.29572         0.89480
C         55.29435        23.68966         0.00138
C         53.34912        22.63567         0.49333
C         55.01026        24.78088        -0.84640
C         53.67292        25.36367        -0.97666
C         54.86323        27.38166        -1.76412
C         53.61924        26.71197        -1.44883
C         54.90326        28.83385        -2.02849
C         53.64217        29.60437        -2.00007
C         54.98496        31.73375        -1.51010
C         53.65776        31.09428        -1.76653
C         55.02303        33.13066        -1.01166
C         53.77759        33.74266        -0.44270
C         55.06121        35.91772        -0.50183
C         53.78841        35.24656        -0.47695
C         55.11867        37.31831        -0.05262
C         53.85673        38.08230        -0.05728
C         55.21933        40.27911        -0.21980
C         53.89957        39.55163        -0.27662
C         55.18889        41.75280         0.00622
C         53.96797        42.44015         0.21178
C         55.22808        44.57463         0.36956
C         54.01238        43.83796         0.45129
C         55.23297        46.01597         0.48836
C         53.99813        46.74307         0.62066
C         55.26085        48.89683         0.85032
C         53.97142        48.15406         0.59966
C         55.27024        50.33650         0.36959
C         53.96406        51.05883         0.26084
C         53.86771        52.52129         0.38867
C         57.52238        23.42786        -0.86958
C         56.48800        22.97358        -0.04920
C         57.42253        24.67896        -1.50128
C         56.16057        25.35429        -1.48080
C         57.24967        27.41714        -2.48517
C         56.06841        26.71720        -1.89225
C         57.33483        28.88673        -2.26356
C         56.20252        29.52813        -1.87034
C         57.51339        31.63987        -1.43144
C         56.21272        30.87372        -1.19849
C         57.47058        33.12511        -1.35642
C         56.19384        33.82715        -1.06658
C         57.48587        35.98918        -1.02569
C         56.24908        35.25466        -0.79872
C         57.58338        37.37709        -0.68810
C         56.45256        38.02258         0.02869
C         57.75536        40.24637        -0.00954
C         56.43613        39.53296         0.34980
C         57.69195        41.72821        -0.09294
C         56.40945        42.46447         0.06277
C         57.77331        44.58084         0.32943
C         56.44496        43.85944         0.18552
C         57.67322        46.05487        -0.02638
C         56.47244        46.73624         0.27661
C         57.66148        48.88965         0.14933
C         56.48850        48.16482         0.35877
C         57.69666        50.32160         0.44595
C         56.56298        51.03349         0.59634
C         59.87182        24.89184        -1.63230
C         58.63274        25.34081        -2.00920
C         59.81331        27.41695        -3.12074
C         58.53110        26.65723        -2.70462
C         59.75977        28.92756        -2.86353
C         58.61313        29.59340        -2.38361
C         59.81637        31.74684        -2.41641
C         58.66294        30.98877        -2.12097
C         59.90299        33.23134        -2.04570
C         58.51376        33.90586        -2.11800
C         59.68330        36.10447        -2.12228
C         58.57119        35.36144        -1.68628
C         59.73454        37.49637        -1.85437
C         58.70363        38.11286        -1.10658
C         59.45847        40.35572        -1.92144
C         58.95326        39.55363        -0.68270
C         59.66137        41.83912        -1.61663
C         58.77646        42.46652        -0.77969
C         60.03310        44.65999        -1.04917
C         58.93389        43.87136        -0.37519
C         59.98168        46.14468        -0.98667
C         58.82349        46.79152        -0.44388
C         59.95562        48.94828        -0.81164
C         58.82267        48.22085        -0.36521
C         61.07923        25.63366        -1.89433
C         61.06465        26.83056        -2.51316
C         60.89654        29.69349        -3.16276
C         60.92348        31.07188        -2.95456
C         60.83389        34.06721        -2.89750
C         60.72479        35.40936        -2.88700
C         60.82052        38.32995        -2.36445
C         60.70664        39.66978        -2.43097
C         60.61973        42.64260        -2.34534
C         60.75705        43.97803        -2.13094
C         61.06938        46.89117        -1.41817
C         61.05762        48.29674        -1.33108
O         47.27251        37.90779         2.52676
O         55.94282        37.31895         1.20087
O         50.00740        45.17340        -0.20596
O         24.79295        35.22297        -4.46719
O         42.37001        23.89106        -1.41724
O         54.26317        29.24176        -3.29089
O         29.53818        39.91511        -2.51376
O         39.41420        39.75413         3.50750
O         43.64656        34.52209        -0.34866
O         51.59152        29.40116        -3.06303
O         24.31540        46.81815        -4.81571
O         38.24782        33.18635         3.64504
O         54.71758        39.85999        -1.51035
O         24.60506        37.36338        -1.23728
O         24.22019        28.35017        -1.16246
O         35.82785        27.35548        -0.65406
O         60.22534        44.08337         0.30023
O         26.61353        45.25134        -4.54869
O         45.13423        18.90127        -1.72424
O         39.87946        18.10830         2.76633
O         42.54331        31.07058         3.07414
O         35.46608        48.49895         2.92079
O         39.24519        30.45463         0.26046
O         35.50756        33.71669         3.18458
O         30.13054        28.16858         2.61845
O         50.76053        50.49614        -1.00153
O         29.22018        45.11433        -3.08788
O         57.55122        26.80152        -3.78843
O         50.00923        23.56077        -2.41261
O         28.12699        22.94788         3.07203
O         52.40016        44.07434         2.27742
O         49.63914        28.14022        -2.86004
O         29.87385        34.12642        -1.89404
O         27.22729        37.86032        -0.07204
O         40.37554        32.08569         3.54783
O         37.98345        39.89813         0.02097
O         46.76483        39.93962        -0.40268
O         41.34238        20.77220         2.01637
O         41.62995        35.64705         0.26253
O         41.97677        56.51031        -1.51583
O         44.95108        32.35917        -0.69876
O         34.21198        37.30278        -1.30831
O         37.61768        27.73264         2.41516
O         40.49700        49.21991         1.07572
O         44.44203        54.48236        -1.04599
O         57.95559        32.34730        -0.19408
O         40.77575        48.63910         3.47555
O         30.59041        44.12020         0.93520
O         40.70390        55.60559         1.89761
O         37.09203        31.72096         0.39057
O         43.95029        48.65736         3.60567
O         35.67975        24.71987        -0.83712
O         44.79048        23.89477        -1.76765
O         54.72697        50.57619        -0.95439
O         46.76338        50.32961        -0.47118
O         35.76093        50.42829        -0.12849
O         41.93857        16.98651         2.28030
O         30.52751        24.61177        -0.04103
O         38.27596        54.28316        -0.67987
O         54.38787        23.39584         1.02654
O         54.40952        31.74957        -2.85344
O         42.23077        44.52001         3.45053
O         46.25560        26.52761         1.61671
O         26.06897        24.71384        -0.56952
O         39.49024        46.22503         3.60857
O         37.78574        19.39629         2.61756
O         51.08993        38.72306        -1.34847
O         42.67717        19.95297        -1.44746
O         35.36114        19.32371         2.74834
O         49.35309        30.24930         0.97949
O         23.62797        31.61361        -3.39005
O         34.45668        31.09360         3.03322
O         32.74549        46.20116        -1.03480
O         29.43136        41.93868         0.46789
O         46.06825        21.63559         0.72321
O         43.69326        28.84803         2.50638
O         25.63478        31.99625         0.44200
O         58.19604        41.06168         1.13058
O         46.71281        47.73235         3.12891
O         25.00005        28.51220         1.75020
O         48.06000        45.17828         3.08680
O         40.90319        42.11354         3.70857
O         26.96243        39.25620        -3.54166
O         50.87465        35.64310        -1.87937
O         42.14605        51.04460         3.40484
O         47.38705        33.21312         1.76424
O         27.66763        47.91171        -3.60321
O         40.74960        53.29704         2.83898
O         49.85335        41.55018         2.29338
O         32.99108        50.54488         2.37493
O         58.11865        33.87089        -3.51446
H         57.26028        34.33450        -3.60931
O         60.02299        39.50134         0.27748
H         59.85695        40.21961         0.93419
O         37.38791        53.75557         2.85948
H         38.28274        53.87273         3.24660
O         38.78183        35.67409         3.99173
H         38.25623        34.95306         4.41266
O         56.23205        39.68458         1.76382
H         56.92055        39.17536         2.23944
O         50.78258        37.34457         2.08111
H         50.16262        36.79930         2.61587
O         24.24669        39.95256        -1.23904
H         24.24735        39.14943        -0.66376
O         42.73521        46.12940         0.20002
H         41.89676        45.68196        -0.07656
O         47.70696        26.63493        -2.58080
H         48.08402        27.34226        -3.16282
O         59.96586        27.24698        -4.55398
H         59.05426        27.22699        -4.92868
O         35.69272        46.16423        -0.56563
H         34.88029        45.97754        -1.09114
O         48.37883        34.24168        -1.59918
H         49.14009        34.75466        -1.99130
O         22.40917        28.32325         1.87926
H         22.22620        27.68062         2.59487
O         31.84146        42.58358        -1.44325
H         32.10708        41.78713        -1.95481
O         49.63101        40.86382        -1.18792
H         49.72071        40.13156        -1.84093
O         40.40991        44.73152         0.38935
H         39.54851        45.00999         0.00817
O         53.85816        33.41572         1.00191
H         54.60517        33.92720         1.38159
O         58.40902        40.26147        -2.92040
H         58.77199        40.55023        -3.78304
O         26.70978        41.54194        -4.59538
H         27.33559        40.78205        -4.65238
O         55.36655        48.98893         2.31120
H         55.48765        48.08191         2.66501
O         47.85466        30.08348        -2.30057
H         48.49834        30.25392        -3.02019
O         60.41269        33.30667        -0.69656
H         59.75647        32.85537        -0.11327
O         48.12140        35.50468         2.64378
H         47.61053        36.12466         3.21490
O         28.57152        31.65601         2.11297
H         27.63735        31.38946         2.25604
O         58.07318        44.56859         1.75533
H         59.05451        44.52011         1.83532
O         27.02284        36.14480        -3.72245
H         26.48043        35.95946        -4.52670
O         41.20815        38.40804         0.15070
H         41.23503        37.52894        -0.30082
O         24.28396        44.44090        -5.74736
H         25.13545        44.94502        -5.75811
O         56.10795        30.57166         0.22114
H         56.68627        31.21962         0.69059
O         34.89591        39.74113        -1.61039
H         34.67578        38.91975        -2.11292
H         22.64233        23.66917        -0.33137
H         20.52492        24.98509        -0.29342
H         20.47592        27.33599         0.37264
H         20.93163        28.71656        -1.23239
H         21.47218        30.35403        -3.00769
H         21.66027        33.10072        -3.81201
H         21.57182        35.59989        -3.76188
H         22.16898        37.41521        -4.95697
H         22.09057        39.87467        -4.98148
H         21.56647        41.75913        -4.20973
H         21.65047        44.11730        -4.80283
H         21.47348        45.66937        -3.48259
H         23.13749        49.30746        -1.94981
H         21.21649        47.88823        -2.46805
H         24.03357        22.71805         1.20183
H         24.62438        50.48781        -1.65156
H         25.90104        21.79293         2.52590
H         26.50420        51.76124        -0.79691
H         30.68779        19.26809         2.89909
H         28.62372        20.54172         3.53788
H         30.05117        54.05692         0.42482
H         28.10419        52.82850        -0.35012
H         31.89292        18.42113         1.36887
H         31.66310        55.05045         0.70430
H         33.86232        17.19589         0.59966
H         33.75717        56.28321         0.61301
H         37.81677        14.72741         0.23724
H         35.70222        15.89757         0.44279
H         37.49800        58.26969        -0.55644
H         35.40707        57.11093        -0.15594
H         39.37270        13.67206         0.38927
H         39.16776        59.25096        -0.65726
H         43.61624        13.80699        -0.30952
H         41.44731        12.56862        -0.27869
H         43.45907        59.36793        -0.60926
H         41.28169        60.47009        -0.89473
H         45.33782        14.71192         0.77991
H         45.12945        58.38012        -0.20687
H         47.41775        16.03018         0.65439
H         47.24237        57.22553         0.13368
H         51.04774        18.32126        -0.24742
H         49.02070        16.95420        -0.14206
H         51.02588        55.14111         0.27245
H         48.91348        56.31729         0.29612
H         52.27414        19.42969         0.83790
H         52.66790        54.24794         0.60157
H         54.16297        20.91891         1.51814
H         54.79699        53.10684         0.41684
H         58.45146        22.84566        -0.91655
H         56.62588        22.09346         0.59164
H         58.67215        50.81492         0.55722
H         56.59220        52.11536         0.78772
H         59.97716        23.96953        -1.04641
H         59.95187        50.04528        -0.76926
H         62.02607        25.21846        -1.51995
H         62.00842        27.36974        -2.67691
H         61.78463        29.20350        -3.58468
H         61.84224        31.62372        -3.19536
H         61.63953        33.59132        -3.47491
H         61.43634        36.01136        -3.47043
H         61.72982        37.84510        -2.74634
H         61.52676        40.26351        -2.85952
H         61.19522        42.17769        -3.15828
H         61.39313        44.57465        -2.80059
H         61.95433        46.38467        -1.82720
H         61.92640        48.87079        -1.68024
