         404
 CSIRO Nanostructure Databank - Neutral Graphene Oxide Data Set
C          1.34558         2.01267         1.42852
C          1.26615         3.38494         1.35701
C          2.54395         1.31075         1.16161
C          2.34985         4.17385         0.77286
C          1.23539         6.36117         1.19461
C          1.24483         7.74775         1.32401
C          2.41200         5.64939         0.94097
C          2.44028         8.47718         1.22482
C          1.29488        10.68190         1.60842
C          1.31157        12.09845         1.71979
C          2.44098         9.91522         1.45877
C          2.47611        12.85136         1.65650
C          1.41650        15.09200         2.05513
C          1.46251        16.49522         1.99917
C          2.48211        14.30209         1.61524
C          2.61448        17.18805         1.58108
C          2.67054        18.62419         1.53584
C          3.73488         1.99375         0.87196
C          3.67715         3.43031         0.54365
C          4.99110         1.35910         0.89298
C          4.92457         4.21232         0.54249
C          3.64425         6.35317         0.79237
C          3.65978         7.77498         0.95007
C          4.88381         5.63964         0.56222
C          4.90626         8.49175         0.81123
C          3.74364        10.57167         1.61721
C          3.76542        12.13023         1.69779
C          4.95892         9.90596         1.13326
C          5.02898        12.79072         1.37095
C          3.66257        14.99264         1.08256
C          3.77100        16.45076         1.17935
C          5.01255        14.21132         0.98122
C          4.98115        17.10560         0.88089
C          3.81397        19.27198         1.15952
C          5.02402        18.54708         0.86676
C          6.18963         2.07869         0.67934
C          6.14977         3.52310         0.52282
C          7.42959         1.41339         0.67678
C          7.37146         4.24299         0.32553
C          6.09915         6.36365         0.40699
C          6.07925         7.79097         0.47313
C          7.33945         5.66236         0.20178
C          7.32693         8.53062         0.21369
C          6.14943        10.62888         1.11401
C          6.20312        12.05702         1.30394
C          7.36227         9.99154         0.57008
C          7.50744        12.77499         1.29263
C          6.23706        14.98612         0.97100
C          6.21790        16.37040         0.75272
C          7.51439        14.29461         1.19085
C          7.46003        17.07550         0.58046
C          6.22481        19.20867         0.61505
C          7.45298        18.49763         0.45866
C          8.64433         2.10734         0.46282
C          8.60839         3.53529         0.25654
C          9.88271         1.43646         0.44600
C          9.81058         4.22827        -0.03611
C          8.56116         6.36009        -0.07929
C          8.60590         7.80114         0.01782
C          9.75559         5.63219        -0.27233
C          9.80077         8.49765        -0.03206
C          8.68411        10.62195         0.86820
C          8.75295        12.09065         0.92223
C          9.92204         9.86778         0.51623
C          9.94105        12.76934         0.68783
C          8.74929        14.95210         0.73817
C          8.69863        16.36080         0.50261
C          9.94347        14.22252         0.60341
C          9.90974        17.05748         0.25346
C          8.67120        19.18152         0.23569
C          9.89077        18.49039         0.12708
C         11.09276         2.11715         0.16316
C         11.05778         3.52765        -0.12746
C         12.33378         1.44896         0.18552
C         12.26341         4.20890        -0.45395
C         10.97232         6.30765        -0.71214
C         11.01078         7.87459        -0.56549
C         12.25721         5.61825        -0.67658
C         12.31922         8.48722        -0.39049
C         11.15733        10.64457         0.30590
C         11.17581        12.02927         0.40374
C         12.38981         9.86221         0.12210
C         12.40655        12.76539         0.13374
C         11.15802        14.91792         0.28171
C         11.13783        16.33651         0.15507
C         12.38098        14.20297         0.08431
C         12.36351        17.04961        -0.04441
C         11.11775        19.18087        -0.08220
C         12.33576        18.50093        -0.15606
C         13.53863         2.09243        -0.19825
C         13.49501         3.49275        -0.59570
C         14.77196         1.43966        -0.07719
C         14.65618         4.17988        -1.00443
C         13.45702         6.34067        -0.85221
C         13.48938         7.78457        -0.71997
C         14.67931         5.61687        -1.05062
C         14.74214         8.48524        -0.89184
C         13.69007        10.62574        -0.09638
C         13.60660        12.09379        -0.16668
C         14.80586         9.91732        -0.74934
C         14.79261        12.80577        -0.53109
C         13.58401        14.92561        -0.16307
C         13.57021        16.34875        -0.15718
C         14.80363        14.22378        -0.47239
C         14.87942        17.09165        -0.07498
C         13.54835        19.20476        -0.39513
C         14.78437        18.55030        -0.46393
C         15.94817         1.96031        -0.74618
C         15.85750         3.40592        -1.33972
C         17.28291         1.46803        -0.46553
C         17.13613         4.11721        -1.68670
C         15.86956         6.33916        -1.32748
C         15.88916         7.74892        -1.28327
C         17.10032         5.62402        -1.74449
C         17.10982         8.46642        -1.72036
C         15.93405        10.66139        -1.09889
C         15.97204        12.08788        -0.92793
C         17.11521         9.97538        -1.66173
C         17.15366        12.81065        -1.25525
C         15.99778        14.93884        -0.81522
C         16.03536        16.37627        -0.72653
C         17.14886        14.22458        -1.22009
C         17.19633        17.09785        -0.99652
C         15.97211        19.24209        -0.72058
C         17.20972        18.55233        -0.87650
C         18.46313         2.08437        -0.92767
C         18.44516         3.42457        -1.52207
C         19.69031         1.46623        -0.64179
C         19.61633         4.10723        -1.79206
C         18.38733         6.35360        -1.75785
C         18.40547         7.73145        -1.75017
C         19.59455         5.56813        -2.09036
C         19.65462         8.46862        -1.71381
C         18.40561        10.69400        -1.64699
C         18.39287        12.09134        -1.55020
C         19.64370         9.93346        -1.65154
C         19.61792        12.84125        -1.64758
C         18.33496        14.98145        -1.77406
C         18.41482        16.42727        -1.35776
C         19.63423        14.23601        -1.60013
C         19.62337        17.10925        -1.39817
C         18.40897        19.24216        -1.00292
C         19.65256        18.55914        -1.21518
C         20.93221         1.94639        -1.20458
C         20.90673         3.37385        -1.82008
C         22.21523         1.38960        -0.78630
C         22.22922         4.10486        -1.89543
C         20.91611         6.34958        -2.18333
C         20.86380         7.76446        -1.77023
C         22.23795         5.59518        -2.14084
C         22.10853         8.41611        -1.35732
C         20.84110        10.63747        -1.63482
C         20.86395        12.08575        -2.04340
C         22.09371         9.97357        -1.29860
C         22.13942        12.78233        -1.66653
C         20.85033        14.97672        -1.52745
C         20.88304        16.38981        -1.49449
C         22.10002        14.22260        -1.35969
C         22.12448        17.11495        -1.43004
C         20.83402        19.26262        -1.28785
C         22.15076        18.61910        -1.61300
C         23.42352         2.07394        -0.94993
C         23.45407         3.43661        -1.38469
C         24.65343         1.42624        -0.57330
C         24.65395         4.19473        -1.20433
C         23.55830         6.37187        -1.99763
C         23.42162         7.78978        -1.48676
C         24.64131         5.59387        -1.28625
C         24.56785         8.53895        -1.28419
C         23.37374        10.66522        -1.47401
C         23.32779        12.09593        -1.60762
C         24.58011         9.97962        -1.33965
C         24.61828        12.80744        -1.71856
C         23.38165        14.99086        -1.25844
C         23.35544        16.46210        -1.33483
C         24.64786        14.30326        -1.64733
C         24.60813        17.14618        -1.17069
C         23.30343        19.29354        -0.83924
C         24.61967        18.54943        -0.93677
C         25.86567         2.09715        -0.56184
C         25.88499         3.51844        -0.82839
C         27.08722         1.42543        -0.18069
C         27.09307         4.22800        -0.73597
C         25.82643         6.33611        -0.84571
C         25.82944         7.85256        -0.91982
C         27.11523         5.64036        -0.77683
C         27.11164         8.55390        -1.01106
C         25.86472        10.68776        -1.39906
C         25.87233        12.06383        -1.54192
C         27.12020         9.95864        -1.25142
C         27.11826        12.84815        -1.66273
C         25.90711        15.00884        -1.33433
C         25.84749        16.41223        -1.09688
C         27.11210        14.29771        -1.32454
C         27.05683        17.08308        -0.77453
C         25.81011        19.20430        -0.63986
C         27.05036        18.50956        -0.53673
C         28.30325         2.07459        -0.12278
C         28.40862         3.49488        -0.63667
C         29.51289         1.41802         0.27281
C         29.42409         4.31242         0.13351
C         28.30458         6.40717        -0.60241
C         28.30988         7.84119        -0.75992
C         29.50285         5.75972        -0.19029
C         29.55394         8.54417        -0.68335
C         28.35353        10.64443        -1.23057
C         28.42587        12.08641        -1.51873
C         29.56780         9.96405        -0.92842
C         29.64936        12.82478        -1.16759
C         28.31805        14.95526        -0.94228
C         28.25445        16.33515        -0.64101
C         29.59812        14.24491        -0.92730
C         29.42106        17.00553        -0.05255
C         28.24519        19.18127        -0.20978
C         29.45769        18.48205         0.01846
C         30.69181         2.11830         0.53927
C         30.63882         3.59702         0.62947
C         31.92753         1.49270         0.83409
C         31.89357         4.35272         0.78864
C         30.67343         6.48206         0.05294
C         30.74287         7.86603        -0.29639
C         31.84446         5.83253         0.68369
C         32.01951         8.53906        -0.36319
C         30.79380        10.67570        -0.93913
C         30.84406        12.09731        -1.01170
C         32.04419         9.90260        -0.92677
C         32.12123        12.79701        -0.90822
C         30.78282        14.91333        -0.63296
C         30.74149        16.24611        -0.04113
C         32.11915        14.31617        -1.00971
C         31.98079        17.01049         0.15018
C         30.65757        19.11289         0.34360
C         31.90431        18.40597         0.46034
C         33.09818         2.22677         1.09329
C         33.06174         3.68660         1.05505
C         34.33522         1.54251         1.27838
C         34.31301         4.44956         1.29140
C         33.16833         6.59435         0.64882
C         33.20868         7.92155         0.00737
C         34.41958         5.83671         0.79492
C         34.49449         8.58337        -0.10330
C         33.36884        10.65197        -0.95819
C         33.31918        12.13558        -0.86843
C         34.56427         9.91970        -0.50524
C         34.60510        12.95099        -0.94305
C         33.29399        14.94282        -0.27099
C         33.20392        16.31947         0.16053
C         34.50068        14.26929        -0.20786
C         34.38177        16.99134         0.60060
C         33.08419        19.07695         0.82427
C         34.31501        18.38353         0.94455
C         35.56560         2.18869         1.40480
C         35.59535         3.67159         1.48034
C         36.79297         1.47408         1.42957
C         36.85315         4.35785         1.14149
C         35.64771         6.44006         0.55363
C         35.71343         7.84660         0.18152
C         36.87483         5.66593         0.72366
C         36.95915         8.50651         0.09113
C         35.84866        10.61975        -0.53051
C         35.87200        12.15050        -0.62737
C         37.05188         9.91209        -0.07796
C         37.01686        12.80138         0.02837
C         35.68092        14.87750         0.35509
C         35.59688        16.26947         0.75592
C         36.89986        14.16875         0.47257
C         36.70907        16.92817         1.31923
C         35.48864        19.04346         1.37986
C         36.68368        18.33379         1.57827
C         38.03656         2.11422         1.47190
C         38.09084         3.59145         1.43150
C         39.26737         1.40310         1.48884
C         39.42262         4.23987         1.22642
C         38.16230         6.26512         0.27337
C         38.21232         7.73452         0.00709
C         39.45763         5.55962         0.52670
C         39.54727         8.46970         0.12961
C         38.26681        10.63715         0.07630
C         38.19877        12.06875         0.21731
C         39.50913         9.93985         0.31229
C         39.42295        12.81442         0.58806
C         38.03844        14.77190         1.15207
C         37.88173        16.14243         1.70184
C         39.25254        14.13052         1.23844
C         39.14908        16.90989         2.09883
C         37.90959        19.03309         1.86936
C         39.11870        18.37904         1.98153
C         40.50921         2.01948         1.34428
C         40.63985         3.41138         1.13685
C         41.85103         4.09699         0.92088
C         40.74745         6.29236         0.59981
C         40.75881         7.71003         0.53050
C         41.90070         5.49075         0.77314
C         41.90571         8.46650         0.86496
C         40.69994        10.60010         0.64654
C         40.73021        12.08328         0.72626
C         41.87909         9.85021         0.90690
C         41.83603        12.77507         1.44052
C         40.36040        14.68477         2.13054
C         40.43319        16.19906         1.99326
C         41.69003        13.99236         1.97531
C         41.57772        16.92392         1.82866
C         40.38412        19.06357         1.92283
C         41.55354        18.36322         1.82687
O          9.43412         9.94202         1.93048
O         29.87937        16.32824         1.16491
O         32.33086         6.54418         1.86510
O          4.14751        14.44489        -0.18571
O         32.79725        10.07264        -2.18500
O         16.87223         9.26768        -2.93846
O         36.18731        11.33842        -1.79545
O         38.23953        16.34623         3.11766
O         21.99046         9.15326        -0.09493
O         25.61883         7.17178         0.37942
O         38.81748         5.48801        -0.79430
O         24.62903        13.65958        -2.95412
O          7.65288        13.62258         2.49317
O         16.96187         4.80924        -2.96693
O         15.66095         2.25851        -2.17640
O         22.37039         4.66950        -3.26088
O         13.35492        10.05909         1.21741
O         20.15946         6.00634        -3.37156
O          3.89698        11.27551         2.88296
O         20.87347         2.21673        -2.66843
O         10.80898         7.20634        -1.84313
O         38.99121         8.06487        -1.17552
O         27.90175        12.48597        -2.84551
O          7.18564         9.58875        -0.82747
O         29.54522         4.03804         1.55095
O         40.41311        12.78210        -0.53102
O         22.76484        14.47708        -0.03203
O          2.77239         3.74137        -0.56345
O         34.88741         4.24043         2.63140
O         38.82191         4.22751         2.56267
O         22.95649        19.40321         0.55023
H         22.92936        18.50217         0.93373
O         39.97265        14.38386         3.50464
H         39.21760        14.98669         3.72914
O         18.11794        15.03429        -3.23571
H         18.17039        14.11411        -3.57300
O         15.21037        17.10137         1.36581
H         14.47616        17.55718         1.83009
O         24.08523         6.54439        -3.35510
H         23.78460         5.75662        -3.87043
O         34.73190        13.34118        -2.35057
H         35.10823        12.55804        -2.82032
O         32.30431        14.63962        -2.42164
H         33.16877        14.23383        -2.69320
O         28.95139         3.41040        -1.99390
H         28.30698         2.91892        -2.54575
O         22.42774        18.87756        -3.02494
H         21.71935        18.45389        -3.55386
O         20.85228        12.07990        -3.52503
H         20.10780        11.50832        -3.81240
H          0.48216         1.44633         1.80638
H          0.38799         3.89544         1.77636
H          2.57615         0.22376         1.32309
H          0.27849         5.82904         1.27956
H          0.29716         8.26345         1.52600
H          0.30722        10.20313         1.55421
H          0.34116        12.61460         1.74509
H          0.51149        14.60901         2.45031
H          0.58347        17.07080         2.32242
H          1.77006        19.19560         1.80417
H          5.04413         0.27707         1.08577
H          3.84138        20.37101         1.12449
H          7.45298         0.32299         0.82164
H          6.24109        20.30827         0.58045
H          9.91038         0.35398         0.64064
H          8.66426        20.27843         0.15181
H         12.36645         0.38686         0.46937
H         11.10416        20.27655        -0.18130
H         14.84139         0.48852         0.46995
H         13.50482        20.29160        -0.56525
H         17.37800         0.56147         0.15065
H         15.95204        20.33684        -0.83523
H         19.70955         0.58099         0.00975
H         18.41718        20.33949        -0.92193
H         22.21757         0.40805        -0.29067
H         20.81399        20.35788        -1.17960
H         24.61646         0.36245        -0.29627
H         23.42313        20.33530        -1.22661
H         27.02103         0.36870         0.12141
H         25.79319        20.28552        -0.43650
H         29.50325         0.32276         0.38655
H         28.23242        20.27610        -0.10070
H         31.98265         0.39348         0.82555
H         30.66899        20.20547         0.47470
H         34.32067         0.44201         1.24855
H         33.04743        20.14965         1.06489
H         36.75879         0.37399         1.40186
H         35.45821        20.12431         1.58100
H         39.22877         0.30787         1.58586
H         37.89128        20.13324         1.84914
H         41.41595         1.39654         1.34274
H         42.79419         3.53105         0.92780
H         42.89135         5.96553         0.72976
H         42.84072         7.94873         1.11909
H         42.80552        10.37880         1.16569
H         42.82866        12.30079         1.45217
H         42.54800        14.45738         2.48359
H         42.54992        16.42207         1.72442
H         40.38774        20.16294         1.90592
H         42.50875        18.89931         1.74136
