         261
 CSIRO Nanostructure Databank - Neutral Graphene Oxide Data Set
C        -11.24508         0.76364        -0.54626
C        -10.08511         1.53090         0.04777
C         -8.88524         0.58141         0.33279
C         -7.54559         1.21961         0.33620
C         -6.23088         0.39291         0.34998
C         -5.08258         1.06501         1.14636
C         -3.76364         0.33767         0.97300
C         -2.47068         1.12382         0.95313
C         -1.38330         0.71846        -0.02045
C         -0.11814         1.52487        -0.14447
C          1.08599         0.95576        -0.86390
C          2.37655         1.72633        -0.89127
C          3.65960         0.94731        -1.11710
C          4.95049         1.68751        -1.03961
C          6.16086         1.09817        -0.30877
C          7.42759         1.55397        -1.03690
C          8.70764         0.78529        -0.93471
C         10.02098         1.49918        -1.11550
C         11.25031         0.75235        -0.71244
C         -9.22324         2.24649        -1.07510
C         -8.36951         3.33283        -0.54380
C         -7.54634         2.74638         0.60662
C         -6.13540         3.29726         0.55402
C         -5.06392         2.56779         1.29574
C         -3.76916         3.31938         1.56282
C         -2.47119         2.58726         1.37627
C         -1.12408         3.28837         1.42281
C          0.09907         2.66709         0.81630
C          1.41383         3.44108         0.83430
C          2.48586         3.06803        -0.16111
C          3.80058         3.79951        -0.11655
C          4.95653         3.18959        -0.86194
C          6.28796         3.84995        -0.91111
C          7.49791         3.02937        -1.29119
C          8.82182         3.69959        -1.26556
C          9.97683         2.98335        -1.20260
C         -8.27354         4.63405        -0.87657
C         -7.31178         5.50116        -0.06721
C         -6.01377         4.71743         0.17132
C         -4.83090         5.49652         0.65616
C         -3.73175         4.82608         1.42221
C         -2.38169         5.53487         1.56323
C         -1.09056         4.75871         1.79134
C          0.22307         5.52702         1.84467
C          1.51740         4.81645         1.47196
C          2.84976         5.60532         1.41893
C          4.08464         4.93950         0.84084
C          5.40139         5.70368         0.66244
C          6.63484         4.97395         0.06076
C          7.63839         5.89565        -0.64076
C          8.79218         5.21464        -1.38908
C         -7.02014         6.85030        -0.68297
C         -5.79693         7.43542        -0.68733
C         -4.52912         6.67677        -0.28209
C         -3.49977         7.61020         0.43241
C         -2.29082         6.93505         1.03726
C         -0.88560         7.49451         0.63210
C          0.15553         7.07527         1.77321
C          1.50041         7.85528         1.70453
C          2.84245         7.11106         1.56536
C          4.08800         7.90300         1.20704
C          5.38652         7.19623         0.81787
C          6.54684         8.03299         0.25591
C          7.55357         7.23051        -0.55302
C         -5.58695         8.75764        -1.27076
C         -4.45513         9.46826        -1.06732
C         -3.41062         9.00303        -0.13217
C         -2.11532         9.65194        -0.05323
C         -0.97936         9.02651         0.46221
C          0.21063         9.74530         0.55793
C          1.45697         9.13528         0.88628
C          2.58972         9.83978         0.58985
C          3.99534         9.39947         0.87642
C          4.88157         9.80050        -0.28088
C          6.02971         9.18520        -0.56965
C        -11.37276        -0.57299        -0.53180
C        -10.36771        -1.48904         0.07577
C         -9.05018        -0.87855         0.48198
C         -7.78847        -1.71758         0.54734
C         -6.41378        -1.11792         0.70264
C         -5.11485        -1.92005         0.49952
C         -3.83708        -1.09362         0.42647
C         -2.71369        -1.50862        -0.50666
C         -1.49193        -0.64386        -0.69537
C         -0.21514        -1.29673        -1.20025
C          1.08016        -0.53132        -1.19533
C          2.37295        -1.30623        -0.95662
C          3.65073        -0.54237        -0.84741
C          4.78048        -1.11329        -0.03555
C          6.11467        -0.39691        -0.01552
C          7.38680        -1.16539         0.08550
C          8.70358        -0.46692        -0.11614
C          9.96752        -1.22251         0.09583
C         11.22721        -0.54283        -0.32714
C        -10.43366        -2.95481        -0.20362
C         -9.30005        -3.69927        -0.25133
C         -7.99500        -2.95661        -0.29730
C         -5.74824        -4.68257         0.35510
C         -5.00414        -3.39427         0.05260
C         -3.95987        -3.74394        -0.97354
C         -2.72324        -2.91709        -1.08652
C         -1.40903        -3.64335        -1.25419
C         -0.13011        -2.82025        -1.20391
C          1.14346        -3.48701        -0.78758
C          2.19198        -2.57894        -0.12500
C          3.48513        -3.34377         0.23991
C          4.76674        -2.55001         0.37206
C          6.09311        -3.28256         0.56548
C          7.33545        -2.68729        -0.15705
C          8.66164        -3.36966         0.18364
C          9.83830        -2.70094         0.25012
C         -9.13733        -5.13202        -0.53790
C         -7.99588        -5.72849        -0.09423
C         -7.15445        -4.90862         0.85796
C         -5.24276        -5.81161        -0.54392
C         -3.96742        -5.26650        -1.24022
C         -2.65940        -5.91786        -0.75510
C         -1.39557        -5.09726        -0.83553
C         -0.19351        -5.63653        -0.10153
C          1.08081        -4.88062        -0.21673
C          2.36257        -5.65352        -0.16463
C          3.54268        -4.84144         0.29814
C          4.86729        -5.53970         0.36427
C          6.11583        -4.77132         0.68983
C          7.37294        -5.57418         0.53753
C          8.65633        -4.89218         0.08443
C         -7.29760        -6.87490        -0.80976
C         -6.50202        -7.84006         0.10753
C         -5.16066        -7.12906         0.22322
C         -3.90573        -7.89475         0.35048
C         -2.63991        -7.22572        -0.04594
C         -1.41234        -7.82016         0.56036
C         -0.14414        -7.06815         0.40537
C          1.06415        -7.93238         0.08657
C          2.36645        -7.15409        -0.02924
C          3.54573        -7.70554         0.74251
C          4.86744        -7.01226         0.58224
C          6.06661        -7.55058         1.35556
C          7.33802        -6.89557         0.83117
C         -6.30881        -9.26814        -0.37928
C         -5.14095        -9.95115        -0.30767
C         -3.86492        -9.36058         0.10882
C         -2.65224        -9.98262         0.03794
C         -1.35943        -9.35622         0.55656
C         -0.00045        -9.75497        -0.13059
C          1.15562        -9.29719         0.72860
C          2.31174        -9.91659         1.05418
C          3.53875        -9.10722         1.29149
C          4.87524        -9.75163         1.42039
C          6.03410        -9.06485         1.37514
O          3.73628         7.62945         2.59473
O         -5.47160         1.68673         2.37788
O         -8.15960         3.05598         1.81819
O         -3.07182         2.78190         2.69987
O         -0.78732        -7.20804         1.71759
O         -2.44833         6.70220         2.44762
O          7.08405        -2.84183        -1.51240
O         -0.43010         6.94478        -0.51480
O          2.62197        -6.52178        -1.30448
O          2.74453         4.17886        -1.07155
O         -8.23601         1.02573        -1.06822
O         -3.72564        -2.95896        -2.15806
O          5.35208         4.04236        -1.99459
O          0.86510        -3.29100        -2.17567
O          1.79846         3.60315         2.21500
O         -3.99836         8.65320         1.23167
O          9.37150        -0.39338         1.18183
O         -7.58540        -4.45063         1.89853
O         -1.27415        -4.68896        -2.24478
O          0.35279        -0.76650        -2.42789
O          4.44808        -1.48150         1.33481
O         -5.71065         3.67263        -0.80125
O         -6.26283        -6.13695        -1.53805
O          3.25184        -4.07822         1.49984
O         -7.15778        -1.59061         1.85006
O         -1.24501         1.76967        -1.03547
O          7.21206         2.09233        -2.36719
O          4.46645         1.22800        -2.30858
O         -0.41861         5.04560         3.05625
O         -4.53678        -7.26647         1.52475
O          1.50361         8.33624         3.10364
O          3.32688        -1.35220        -2.03090
O          6.75481        -0.69276         1.28167
O          6.19162        -3.89752         1.86827
O         -4.16669        -1.87214         1.60509
O         -2.59419        -0.59025        -1.64160
O          3.26326        -7.94321         2.15129
O         -2.80428         0.27830         2.07139
O         -7.22038        -3.14443        -1.22798
O          5.82169         6.33973         1.90140
O          0.28732        -4.79531         1.00968
O          5.12775        -6.47636        -0.73335
O         -3.93181         6.15879        -1.39979
O         -2.46714        -7.17716        -1.49692
O          1.46721         1.76713        -2.01567
O          9.38084         0.73510        -2.21640
O         -4.68884        -4.25265         1.22245
O          0.47071        -8.71454        -1.10234
O          7.37585         4.38566         1.07739
O        -10.05704        -1.19416         1.48409
O         -0.27160         2.39013         2.19262
O          3.78834         4.85525         2.24485
O         -4.78159         5.60073         2.09165
O         -1.25211        -9.81051         1.92256
H         -0.92417        -9.05174         2.46029
O          7.25559         8.58181         1.38678
H          7.30611         7.86620         2.06014
O          5.87507        -7.09622         2.72050
H          6.56479        -7.50143         3.28482
O        -10.53562         2.33215         1.08375
H         -9.73497         2.72713         1.57327
O         -7.92880         5.72819         1.21595
H         -8.07853         4.83469         1.64865
O         -4.07892        -5.50310        -2.63335
H         -3.24873        -5.19466        -3.06014
O          9.78186        -5.45310         0.75628
H          9.69058        -5.27058         1.71398
O          4.39170        10.14711         2.04906
H          4.06629         9.63920         2.82900
O         -5.72102         0.39163        -0.99560
H         -6.36961         0.01317        -1.62551
O         -0.30424         7.57455         3.02953
H         -0.46101         6.80010         3.63765
O          1.59301        -2.10993         1.10175
H          1.85817        -2.73162         1.82188
O         -7.14722        -7.88429         1.38900
H         -6.44123        -7.97649         2.06887
O          6.11406         1.77358         0.96829
H          6.56912         1.20525         1.63540
O          8.68228         5.54348        -2.78309
H          8.00151         4.96683        -3.19007
H         12.17429        -1.07903        -0.16223
H         12.21834         1.24701        -0.88792
H         10.93801         3.51973        -1.15090
H          9.76057         5.64541        -1.02798
H          8.32663         7.83697        -1.05436
H          6.65093         9.54335        -1.40457
H          4.55681        10.66702        -0.87760
H          2.47580        10.83207         0.12218
H          0.19815        10.83157         0.36831
H         -1.99895        10.63633        -0.53754
H         -4.30756        10.44360        -1.55300
H         -6.38237         9.17101        -1.90945
H         -7.88616         7.42433        -1.05214
H         -8.91715         5.08163        -1.65022
H         -9.64094         2.34697        -2.09737
H        -12.05351         1.37847        -0.96911
H        -12.26942        -1.03637        -0.96985
H        -11.42845        -3.41701        -0.29341
H         -9.83974        -5.63985        -1.21750
H         -7.96109        -7.37228        -1.55195
H         -7.21362        -9.80495        -0.70476
H         -5.12448       -11.00935        -0.61186
H         -2.60986       -11.04713        -0.24309
H          0.01978       -10.78088        -0.56170
H          2.35566       -11.00970         1.17069
H          4.89488       -10.85101         1.48298
H          6.98884        -9.61036         1.44038
H          8.26308        -7.49029         0.76387
H          8.78245        -5.12855        -1.00890
H         10.76644        -3.28391         0.37204
