         630
 CSIRO Nanostructure Databank - Neutral Graphene Oxide Data Set
C         22.87691        27.55367         0.20639
C         22.87009        28.89474         0.33335
C         23.04286        31.73012        -0.43431
C         23.11135        33.03456        -1.04526
C         23.21069        35.92646        -1.75479
C         23.26648        37.26810        -1.89537
C         23.30663        40.18493        -2.32519
C         23.30575        41.50810        -2.04594
C         23.46646        44.19335        -0.32267
C         23.45754        45.51838         0.07685
C         25.32832        24.67511         0.42827
C         24.10505        25.41302         0.28135
C         25.36694        27.52098         0.25262
C         24.11341        26.78983         0.24186
C         25.38834        28.89313         0.33174
C         24.12232        29.68086         0.63128
C         25.44962        31.76016         0.00383
C         24.14852        31.07000         0.01489
C         25.51515        33.14465        -0.60831
C         24.28393        33.71600        -1.18471
C         25.70328        35.75153        -1.71896
C         24.39833        35.01127        -1.97165
C         25.74096        37.16933        -2.16546
C         24.50059        37.99206        -2.15767
C         25.78273        40.15044        -2.36092
C         24.52004        39.37253        -2.27279
C         25.78696        41.58397        -2.07968
C         24.52805        42.16922        -1.44699
C         25.21958        44.64151        -1.88385
C         24.39295        43.69442        -1.28487
C         25.33022        45.98673        -1.41524
C         24.44219        46.43307        -0.39464
C         25.74227        48.49739        -0.17987
C         24.63818        47.73577         0.15469
C         27.97837        23.22066        -0.03940
C         27.79032        24.51167         0.63659
C         26.54272        25.29177         0.39772
C         27.84120        27.46874         0.63045
C         26.65477        26.75406         0.02719
C         27.88532        28.84993         0.53506
C         26.66041        29.59794         0.28006
C         27.96009        31.66610        -0.00824
C         26.69938        30.96847         0.08337
C         28.02150        32.99369        -0.46557
C         26.83680        33.59222        -1.20005
C         28.12450        35.80512        -1.20167
C         26.86137        35.10039        -1.37238
C         28.20716        37.18426        -1.46336
C         27.08316        37.88043        -2.11334
C         28.26394        40.09379        -1.63163
C         27.12776        39.37377        -2.21612
C         28.25039        41.52003        -1.69822
C         27.04838        42.22983        -2.06590
C         28.30714        44.36566        -1.92709
C         27.17452        43.62508        -2.29045
C         28.35891        45.79347        -2.03675
C         26.41948        46.83406        -1.77638
C         28.01047        48.71184        -1.30463
C         26.70961        48.02784        -1.11817
C         28.03765        50.12612        -1.29808
C         30.37970        23.21048         0.53707
C         29.18350        22.60469        -0.02495
C         30.35261        24.56842         0.92728
C         29.04407        25.23616         1.07786
C         30.29882        27.47538         1.35211
C         28.98489        26.73230         1.19268
C         30.34650        28.90565         0.98524
C         29.13434        29.57901         0.67595
C         30.40999        31.64918         0.31489
C         29.16451        30.96459         0.35154
C         30.43676        33.04873         0.02321
C         29.24885        33.70952        -0.40485
C         30.50045        35.82452        -0.54229
C         29.28296        35.10832        -0.72443
C         30.49973        37.24508        -0.63585
C         29.36575        37.93061        -1.08368
C         30.52526        40.09577        -0.65420
C         29.36643        39.38177        -1.11968
C         30.42925        41.55941        -0.52878
C         29.34874        42.27490        -1.21037
C         30.54098        44.44849        -0.87134
C         29.38914        43.68436        -1.28078
C         30.53714        45.88387        -0.96819
C         29.34455        46.56228        -1.42549
C         30.47129        48.74141        -1.15609
C         29.25130        48.01401        -1.33287
C         30.47261        50.15938        -1.26271
C         29.22810        50.83016        -1.36582
C         32.83571        20.36376         0.38835
C         31.66224        21.09160         0.27107
C         32.76914        23.05696         1.33758
C         31.59121        22.45737         0.60876
C         32.82717        24.56001         1.24216
C         31.57620        25.30187         1.19543
C         32.80601        27.43238         1.62154
C         31.55989        26.69198         1.35010
C         32.87610        28.95821         1.48090
C         31.58190        29.58561         0.95318
C         32.88951        31.65272         0.53194
C         31.62133        30.94265         0.57569
C         32.91041        33.06157         0.41462
C         31.67342        33.76533         0.09466
C         33.05316        35.76572        -0.42007
C         31.69979        35.12615        -0.20357
C         32.98693        37.29166        -0.46050
C         31.68910        37.96612        -0.06128
C         32.92929        40.19236        -0.06146
C         31.70187        39.45514        -0.28961
C         32.93389        41.61215        -0.05560
C         31.67490        42.35214        -0.15132
C         32.93160        44.50263        -0.29940
C         31.71270        43.79003        -0.45701
C         32.92737        45.93682        -0.35883
C         31.69981        46.61902        -0.66236
C         32.86352        48.79317        -0.55525
C         31.69697        48.06156        -0.80977
C         32.91591        50.19666        -0.81489
C         31.73156        50.87069        -1.23630
C         33.03171        52.88825        -1.62379
C         31.82162        52.22883        -1.63303
C         35.35652        18.86112         0.35640
C         35.31172        20.25697         0.73256
C         34.08051        20.98576         0.73263
C         35.30564        23.03819         1.28292
C         34.08631        22.37007         1.04296
C         35.30838        24.48817         1.43135
C         34.04752        25.19573         1.34390
C         35.36566        27.33670         1.26966
C         34.09353        26.65466         1.54410
C         35.40967        28.69432         0.59382
C         34.02384        29.43709         0.52392
C         35.29616        31.64779         0.91274
C         34.10882        30.94560         0.67352
C         35.32254        33.07329         0.87068
C         34.12893        33.76128         0.58529
C         35.42059        35.94189         0.46817
C         34.06982        35.27008         0.62230
C         35.45878        37.31946         0.16442
C         34.23112        38.05010        -0.20109
C         35.39267        40.21855         0.03196
C         34.17313        39.50813         0.01732
C         35.36499        41.63518        -0.01528
C         34.14468        42.34362        -0.03665
C         35.35704        44.53022         0.05281
C         34.14458        43.79713        -0.08107
C         35.34926        45.96957         0.05838
C         34.12590        46.65108        -0.12685
C         35.35196        48.86628        -0.11092
C         34.05285        48.13607         0.10179
C         35.36849        50.24984        -0.23757
C         34.14515        50.92297        -0.67364
C         35.43327        53.00346        -0.95727
C         34.20589        52.25865        -1.12654
C         35.59187        54.32269        -1.45169
C         37.75792        18.68931         0.90225
C         36.49597        18.12905         0.39247
C         37.77604        20.16715         1.22295
C         36.51110        20.92670         1.07929
C         37.78488        22.92235         1.89488
C         36.52049        22.31029         1.31741
C         37.76278        24.46020         1.87972
C         36.49800        25.18745         1.60049
C         37.81968        27.34725         1.34389
C         36.54331        26.63070         1.42682
C         37.78629        28.80638         1.31814
C         36.58242        29.47207         1.14408
C         37.79274        31.69102         1.57612
C         36.49552        30.91117         1.35753
C         37.76903        33.14232         1.30344
C         36.58778        33.80385         1.03314
C         37.84831        35.95773         0.81178
C         36.60285        35.24710         0.79248
C         37.86653        37.36837         0.57292
C         36.65786        38.06156         0.28244
C         37.86514        40.18920         0.23483
C         36.65309        39.49375         0.13535
C         37.90842        41.64285        -0.00537
C         36.60814        42.39976        -0.13956
C         37.80400        44.53671         0.35939
C         36.59717        43.84573         0.12385
C         37.79152        45.98394         0.39853
C         36.59554        46.67426         0.19360
C         37.83366        48.90271         0.35198
C         36.65432        48.13332        -0.20281
C         37.77692        50.32363         0.48915
C         36.56146        51.01408         0.08074
C         37.30961        53.39360         0.48627
C         36.46263        52.44297        -0.13261
C         37.48956        54.71547         0.01208
C         36.65074        55.12564        -1.06338
C         40.23715        15.96572         0.08323
C         39.05596        16.63160         0.35321
C         40.23426        18.77744         0.49541
C         39.04020        18.02683         0.56027
C         40.24546        20.21888         0.71157
C         39.05370        20.90922         1.07022
C         40.26502        23.01515         1.18120
C         39.05229        22.29973         1.29179
C         40.32589        24.44896         1.55853
C         39.05012        25.22230         1.75044
C         40.27951        27.39535         1.30938
C         39.02611        26.67391         1.41629
C         40.27261        28.82335         1.32627
C         39.03587        29.54781         1.42415
C         40.29811        31.68539         1.34714
C         39.05955        30.95150         1.45972
C         40.31214        33.10795         1.31707
C         39.04641        33.88023         1.61557
C         40.29840        35.97175         1.04467
C         39.06903        35.28556         1.08313
C         40.31171        37.39064         0.87896
C         39.09063        38.09095         0.66707
C         40.30072        40.24692         0.65393
C         39.08251        39.50960         0.51528
C         40.28032        41.68250         0.65720
C         39.07982        42.40998         0.43580
C         40.22390        44.55340         1.05570
C         39.02392        43.80888         0.53819
C         40.24986        46.01330         0.66842
C         39.05505        46.71171         0.50452
C         40.28041        48.85215         0.66738
C         39.04855        48.16985         0.49735
C         40.28510        50.28312         0.87677
C         39.00545        50.98864         0.91075
C         40.26927        53.07169         1.44757
C         39.07249        52.32354         1.35754
C         40.29457        54.47759         1.47202
C         38.52172        55.56476         0.56074
C         40.24863        57.31818         0.38464
C         39.00622        56.75793         0.02922
C         42.67007        16.01129        -0.30532
C         41.44790        16.68685        -0.00927
C         42.68132        18.82219         0.05909
C         41.45265        18.09833         0.18857
C         42.68666        20.24809         0.20611
C         41.45640        20.94786         0.55387
C         42.66200        23.13267         0.50549
C         41.45709        22.35796         0.77463
C         42.70075        24.50172         0.61838
C         41.57032        25.22617         1.23092
C         42.71084        27.43147         1.03675
C         41.50250        26.70871         1.14634
C         42.72146        28.81899         1.19678
C         41.50570        29.53560         1.29899
C         42.77243        31.68096         1.18035
C         41.52634        30.97302         1.28805
C         42.77329        33.10403         1.10921
C         41.52855        33.81396         1.18551
C         42.77393        35.95471         1.05838
C         41.54513        35.25338         1.13103
C         42.79175        37.39269         1.04684
C         41.53723        38.11296         0.96230
C         42.74702        40.26933         1.07931
C         41.50229        39.52080         0.88648
C         42.75517        41.67917         0.60597
C         41.49824        42.44443         0.75556
C         42.79594        44.55951         1.05581
C         41.51132        43.81222         0.80251
C         42.74498        46.00167         0.63015
C         41.51876        46.69020         0.62238
C         42.74810        48.80558         0.71130
C         41.51856        48.13113         0.63707
C         42.78444        50.18725         1.28102
C         41.48959        50.93185         1.13992
C         42.77224        53.11023         1.16429
C         41.56009        52.34586         1.62772
C         42.72252        54.52024         1.06235
C         41.45737        55.22483         1.17119
C         42.64147        57.33027         0.75989
C         41.39750        56.62906         0.85410
C         43.84158        16.70824        -0.42555
C         45.10735        18.85796        -0.42692
C         43.88123        18.12923        -0.26171
C         45.10479        20.27733        -0.31893
C         43.88275        20.95110        -0.01579
C         45.15796        23.16619        -0.14055
C         43.84591        22.42700        -0.04637
C         45.22154        24.59506         0.21420
C         43.91575        25.28681         0.26927
C         45.25825        27.42015         0.76224
C         43.94930        26.74988         0.58242
C         45.24881        28.79697         0.99039
C         44.01972        29.51748         1.47907
C         45.23691        31.67073         1.05546
C         44.01238        30.98531         1.15810
C         45.24817        33.10069         0.97828
C         44.01104        33.81099         1.02209
C         45.25204        35.94344         0.91444
C         44.01746        35.24199         1.00721
C         45.26249        37.37238         0.91114
C         44.02659        38.06982         1.02688
C         45.30782        40.25909         0.82937
C         44.05745        39.53516         1.14018
C         45.30993        41.65224         0.68154
C         44.04574        42.39196         0.51903
C         45.22616        44.53454         0.39646
C         44.04874        43.85424         0.60884
C         45.19673        45.97303         0.26489
C         43.98123        46.68658         0.41602
C         45.18239        48.86914         0.44582
C         43.97447        48.13157         0.48235
C         45.21128        50.28940         0.64955
C         44.00926        50.98645         0.90424
C         45.21264        53.13474         0.74283
C         43.98997        52.40563         0.94564
C         45.18963        54.55799         0.73682
C         43.93123        55.25603         0.84762
C         43.85262        56.67686         0.77597
C         47.51078        18.88210        -0.86875
C         46.33714        18.19058        -0.70684
C         47.55236        20.30171        -0.74595
C         46.34890        20.99722        -0.46648
C         47.62488        23.09218        -0.20345
C         46.41437        22.40586        -0.23350
C         47.70997        24.47389         0.40353
C         46.41512        25.26064         0.33229
C         47.73598        27.35111         0.73132
C         46.47983        26.69261         0.59163
C         47.68793        28.76791         0.99142
C         46.47206        29.51030         1.00109
C         47.72086        31.65616         0.98289
C         46.49327        30.94894         1.04638
C         47.73585        33.10053         0.90420
C         46.48876        33.80653         0.89598
C         47.72545        35.93786         0.72579
C         46.49246        35.23000         0.84628
C         47.72721        37.36964         0.67198
C         46.49946        38.08437         0.78904
C         47.73688        40.22582         0.54607
C         46.51433        39.51980         0.72846
C         47.73664        41.65282         0.45958
C         46.51267        42.37464         0.49988
C         47.69196        44.48250         0.12167
C         46.49155        43.80184         0.29721
C         47.72396        45.91382        -0.36792
C         46.39923        46.67052        -0.18378
C         47.67860        48.89188         0.18179
C         46.40155        48.20045        -0.00597
C         47.68346        50.28454         0.38705
C         46.44585        51.00521         0.52076
C         47.68229        53.14999         0.48928
C         46.45003        52.42825         0.58946
C         47.62630        54.56597         0.49358
C         46.42695        55.24550         0.59869
C         49.95761        20.41371        -1.40499
C         48.77416        21.04198        -0.92327
C         50.00135        23.19872        -0.89107
C         48.81280        22.43337        -0.63383
C         50.02532        24.61915        -0.65403
C         48.90954        25.28423        -0.03619
C         50.23374        27.32200         0.08992
C         48.97231        26.63557         0.33622
C         50.55682        28.54984         0.68445
C         48.82803        29.55485         1.30871
C         50.29422        31.57689         1.05908
C         48.94367        30.92434         1.09327
C         50.25939        33.09960         0.91616
C         48.95605        33.80556         0.82668
C         50.19038        35.93798         0.45452
C         48.96129        35.22173         0.66874
C         50.18506        37.35369         0.35145
C         48.95775        38.07582         0.49911
C         50.18393        40.21828         0.27645
C         48.96157        39.50281         0.43907
C         50.18492        41.64593         0.24167
C         48.95911        42.36615         0.31118
C         50.16868        44.51208         0.16552
C         48.94019        43.78854         0.18782
C         50.15443        45.96168         0.23585
C         48.94397        46.64850         0.16221
C         50.21568        48.84430         0.43997
C         48.89759        48.09531         0.39611
C         50.16772        50.28592         0.06716
C         48.91765        51.02615         0.34961
C         50.20827        53.11018         0.30326
C         48.92995        52.42416         0.36646
C         51.09475        21.14082        -1.65171
C         52.29926        23.31502        -1.81359
C         51.14070        22.54954        -1.43211
C         52.25349        24.71708        -1.73409
C         51.15289        25.36285        -1.09435
C         52.39966        27.52039        -1.05342
C         51.24708        26.76227        -0.75838
C         52.52991        28.86771        -0.62171
C         51.51627        29.46446         0.19408
C         52.62066        31.63173         0.09117
C         51.50008        30.87130         0.49827
C         52.63293        33.08171         0.14017
C         51.45425        33.80734         0.41065
C         52.61334        35.92909        -0.09478
C         51.42378        35.22036         0.27030
C         52.61312        37.36988        -0.15772
C         51.40900        38.07233         0.10309
C         52.62473        40.22411        -0.05687
C         51.40666        39.50382         0.11412
C         52.63567        41.66163         0.01095
C         51.41121        42.36544         0.13814
C         52.63217        44.50729         0.27736
C         51.39641        43.80054         0.17923
C         52.61684        45.92289         0.43365
C         51.42389        46.65476         0.39037
C         52.69368        48.79126         0.28827
C         51.48339        48.09876         0.32927
C         52.80888        50.25887        -0.12674
C         51.47229        51.02612        -0.12320
C         51.39691        52.47684         0.12098
C         54.66350        23.33216        -2.48804
C         53.53860        22.65206        -2.15829
C         54.63140        24.78567        -2.70075
C         53.36662        25.51726        -2.29283
C         54.83375        27.50465        -1.64988
C         53.43852        27.02379        -2.03642
C         54.93158        28.87286        -1.22424
C         53.73357        29.60380        -0.83290
C         54.99215        31.70798        -0.66069
C         53.78008        30.96297        -0.45668
C         55.03503        33.08314        -0.49299
C         53.81373        33.80474        -0.23044
C         54.97849        35.90716        -0.99109
C         53.79907        35.20507        -0.35408
C         55.06461        37.38308        -0.64696
C         53.82914        38.09623        -0.41804
C         55.03134        40.28438        -0.64127
C         53.81679        39.50999        -0.34198
C         55.10153        41.71408        -0.28142
C         53.86755        42.39690        -0.02747
C         55.12367        44.51294         0.21760
C         53.86789        43.79675         0.18245
C         55.13907        45.89636         0.46937
C         53.87842        46.61951         0.85317
C         55.12225        48.77358         0.70003
C         53.92091        48.08875         0.50904
C         55.06450        50.21536         0.88350
C         53.94337        50.92051         0.61458
C         57.08536        24.95154        -3.19911
C         55.92685        25.52267        -2.68556
C         57.31537        27.32314        -1.70413
C         55.97929        26.79430        -2.02272
C         57.41591        28.81045        -1.26747
C         56.15942        29.53620        -1.21456
C         57.52852        31.68149        -1.11192
C         56.19035        30.99920        -1.15833
C         57.57111        33.03842        -0.43839
C         56.28908        33.81931        -0.63718
C         57.54720        35.90707        -1.17866
C         56.28590        35.16918        -0.79789
C         57.55177        37.36029        -0.75749
C         56.29169        38.04594        -0.68418
C         57.58963        40.24104        -0.50784
C         56.33511        39.52052        -0.77192
C         57.58543        41.65569        -0.38525
C         56.32609        42.38753        -0.28108
C         57.57140        44.51503         0.04184
C         56.35211        43.81148        -0.01928
C         57.58321        45.89480         0.36308
C         56.35764        46.60729         0.53689
C         57.60858        48.66615         0.93607
C         56.37501        48.03264         0.77107
C         58.34894        25.58028        -3.08722
C         59.75889        27.40996        -2.16581
C         58.50314        26.74041        -2.33665
C         59.86168        28.69687        -1.68676
C         58.71819        29.50587        -1.38183
C         60.00125        31.61692        -0.98638
C         58.78068        30.88366        -1.13483
C         60.03222        32.98533        -0.83213
C         58.84186        33.78539        -0.77178
C         60.03420        35.95380        -0.90703
C         58.83455        35.16925        -0.87477
C         59.99584        37.32053        -0.82430
C         58.76196        38.05192        -0.68178
C         59.99933        40.20467        -0.27838
C         58.79440        39.50061        -0.46250
C         60.00721        41.59653        -0.22067
C         58.82287        42.34056        -0.27819
C         60.07400        44.51523         0.20944
C         58.85952        43.85160        -0.39607
C         60.05524        45.81284         0.57985
C         58.82620        46.58354         0.58645
C         58.81514        47.94245         0.88692
O         43.33866        41.87315        -0.72778
O         28.18248        24.53378         2.05134
O         25.51100        32.98915         0.83270
O         57.48230        27.69785        -0.30811
O         43.39870        40.05422         2.37195
O         56.79289        31.63965        -2.36672
O         27.33089        46.41676        -2.76790
O         41.30503        24.73765         2.61005
O         37.72907        19.16770         2.29368
O         33.47888        27.01412         2.86327
O         46.17757        47.55587        -1.33777
O         49.91271        28.88858         1.87609
O         37.88878        53.00012         1.69465
O         29.42753        27.20697         2.50907
O         50.67389        50.57698        -1.28390
O         30.65987        42.00906         0.85671
O         39.09899        55.15810         1.77717
O         43.74526        26.27254        -0.81329
O         44.30374        22.96369        -1.33846
O         50.53123        32.44008         2.21426
O         49.53880        48.52820         1.69007
O         55.61481        40.00800        -1.96250
O         26.08884        44.25218        -2.91881
O         33.68128        37.80532        -1.62333
O         37.40631        42.03242        -1.33057
O         38.44281        24.98790         3.07527
O         53.64503        25.21119        -3.70883
O         26.66266        39.84534        -3.50002
O         26.59932        37.28390        -3.35884
O         36.94304        31.30806         2.70814
O         47.92323        24.21604         1.84154
H         48.08708        25.08076         2.27559
O         47.94490        45.78879        -1.80770
H         47.46665        46.54208        -2.23007
O         53.84920        46.58090         2.33644
H         53.00750        46.99834         2.62023
O         42.90000        44.61712         2.53319
H         42.00392        44.87871         2.86297
O         40.09210        44.58914         2.54630
H         39.94233        43.66531         2.84361
O         36.92879        48.08489        -1.66887
H         37.79093        47.62935        -1.78515
O         58.96187        44.10256        -1.84557
H         58.91713        45.07362        -1.97651
O         33.10941        29.52756         2.77518
H         33.35058        28.78850         3.38421
O         31.62354        37.78599         1.39098
H         30.82201        38.24519         1.71896
O         39.04953        34.02107         3.09107
H         38.16124        34.33675         3.36162
O         26.87514        33.01743        -2.54261
H         27.61291        33.43630        -3.03322
O         57.65169        32.73816         0.99212
H         57.75416        33.58358         1.47714
O         33.81019        48.26895         1.56575
H         33.64879        49.21981         1.74760
O         37.78241        22.51278         3.28514
H         38.25313        23.21810         3.78928
O         26.90190        26.75337        -1.43342
H         26.07213        26.45764        -1.86537
O         53.23603        50.22534        -1.52366
H         52.42135        50.08097        -2.05841
O         54.70510        35.88358        -2.43285
H         55.57035        36.02865        -2.88684
O         32.50680        22.77761         2.76415
H         32.48433        21.80297         2.87270
O         33.47635        29.18229        -0.80909
H         33.60640        29.98271        -1.36009
O         41.72697        52.26624         3.13799
H         40.84906        52.02868         3.50965
O         42.97174        49.94521         2.73593
H         42.72509        50.80015         3.18224
O         44.13819        29.44842         2.95576
H         44.88751        30.02506         3.21841
O         24.62726        41.64625        -0.07200
H         23.72773        41.63697         0.31767
O         24.12858        29.90866         2.07959
H         24.21933        29.03620         2.51756
O         33.50328        35.28925        -1.70827
H         33.80285        36.08633        -2.21272
O         57.49581        35.96745        -2.66019
H         58.25053        36.52116        -2.95604
O         24.39174        34.65345        -3.38626
H         24.71431        35.42947        -3.89246
O         33.56167        35.65312         1.92712
H         34.11543        35.22546         2.61278
O         35.80659        28.39618        -0.78224
H         34.97016        28.25710        -1.28913
O         53.12616        27.69656        -3.29073
H         53.36814        27.06577        -4.01021
H         21.93397        26.99966         0.08087
H         21.90800        29.42666         0.34949
H         22.05499        31.24977        -0.40353
H         22.17989        33.43846        -1.46743
H         22.23277        35.46187        -1.56068
H         22.34161        37.85201        -1.77697
H         22.37345        39.70731        -2.65955
H         22.37702        42.09049        -2.14016
H         22.74511        43.49719         0.13205
H         22.73345        45.85346         0.83283
H         25.26706        23.59289         0.61548
H         23.14969        24.86987         0.28083
H         25.90918        49.45979         0.32506
H         23.93297        48.10310         0.91373
H         27.12838        22.77022        -0.57241
H         27.08617        50.67671        -1.28858
H         29.27463        21.62856        -0.51977
H         29.19635        51.92667        -1.42222
H         32.80646        19.29469         0.14364
H         30.77040        20.56549        -0.09570
H         33.07398        53.93038        -1.96678
H         30.92740        52.75674        -1.99070
H         34.44477        18.38401        -0.02695
H         34.86819        54.71928        -2.17589
H         36.48735        17.10402        -0.00430
H         36.76461        56.12972        -1.49436
H         40.24305        14.87585        -0.05867
H         38.12342        16.05774         0.43747
H         40.43361        58.34539         0.02943
H         38.41156        57.28590        -0.73170
H         42.65416        14.92076        -0.44396
H         42.61852        58.42008         0.60963
H         44.75997        16.15707        -0.66394
H         44.77003        57.27151         0.67253
H         48.43142        18.31925        -1.07081
H         46.36236        17.09668        -0.78974
H         48.55021        55.15256         0.40172
H         46.44760        56.34332         0.58584
H         49.95978        19.33874        -1.62748
H         50.22443        54.19900         0.45135
H         51.96712        20.62215        -2.06914
H         52.32710        53.06149         0.16030
H         55.62003        22.79973        -2.58892
H         53.60635        21.56286        -2.03616
H         55.93216        50.72783         1.32395
H         53.91864        52.00356         0.80061
H         57.02322        23.99277        -3.73278
H         57.65549        49.74840         1.11865
H         59.22328        25.12143        -3.57041
H         60.67028        26.88885        -2.49495
H         60.85910        29.15704        -1.64401
H         60.95643        31.07503        -1.03544
H         61.01317        33.48178        -0.82261
H         61.01155        35.45193        -0.92150
H         60.94686        37.86835        -0.82196
H         60.95825        39.67383        -0.21972
H         60.97805        42.10338        -0.14377
H         61.03188        43.97638         0.21354
H         60.97766        46.30816         0.91991
H         59.76554        48.46453         1.06960
