         324
 CSIRO Nanostructure Databank - Neutral Graphene Oxide Data Set
C         30.36901        57.13658        -0.06682
C         30.35374        58.54290        -0.19105
C         29.13515        59.27312        -0.20057
C         30.33830        61.37218        -0.38425
C         29.14020        60.66459        -0.30030
C         32.71231        52.90390         0.61388
C         32.80502        54.26823         0.07069
C         31.62868        55.01818         0.15868
C         32.82565        57.11578        -0.22593
C         31.58187        56.41703        -0.08014
C         32.82396        58.55370        -0.28521
C         31.59738        59.25678        -0.28444
C         32.80612        61.39874        -0.43768
C         31.58756        60.69288        -0.37378
C         35.21364        48.58639         0.46304
C         35.09824        49.98808         0.51970
C         33.80703        50.54222         0.67664
C         35.41077        52.85405        -0.48970
C         33.52288        51.87313         0.21635
C         35.32874        54.29746        -0.55332
C         34.02785        54.95422        -0.32813
C         35.33668        57.09999        -0.12086
C         34.02361        56.36873        -0.32145
C         35.29156        58.59691        -0.32494
C         34.05884        59.28280        -0.34831
C         35.27803        61.42385        -0.41026
C         34.04979        60.72216        -0.41113
C         37.69446        44.40030         0.11223
C         37.69933        45.77982         0.28063
C         36.47530        46.51455         0.23206
C         37.68993        48.60333         0.90723
C         36.43852        47.88425         0.45404
C         37.71112        50.07154         0.41961
C         36.38699        50.82330         0.73833
C         37.78246        52.80820        -0.13333
C         36.46853        52.17757         0.05700
C         37.78510        54.23603        -0.66057
C         36.52249        54.98633        -0.66367
C         37.78102        57.20639        -0.49045
C         36.50883        56.48444        -0.87226
C         37.76718        58.58429        -0.28969
C         36.50490        59.30241        -0.32096
C         37.75230        61.43029        -0.29216
C         36.51202        60.74147        -0.34637
C         40.20791        40.05025        -0.17801
C         39.98808        41.35989         0.53398
C         38.87493        42.24782         0.04828
C         40.14490        44.35307         0.38162
C         38.89640        43.62226         0.20605
C         40.17836        45.72655         0.35697
C         38.95992        46.50622         0.40106
C         40.21594        48.65709         0.45422
C         38.97691        47.89089         0.52369
C         40.22201        50.04043         0.57506
C         38.97668        50.79407         1.00141
C         40.28740        52.92912         0.13036
C         38.98782        52.37089         0.68628
C         40.31612        54.29659        -0.26777
C         39.07821        54.99272        -0.65953
C         40.29457        57.21398        -0.24978
C         39.05797        56.51441        -0.60662
C         40.25321        58.62764        -0.06815
C         38.99912        59.31303        -0.15828
C         40.22394        61.44224        -0.14501
C         38.98430        60.74320        -0.17691
C         42.67917        35.98421        -1.22769
C         42.64959        37.25347        -0.66332
C         41.43838        37.97751        -0.54504
C         42.64365        39.95239         0.35086
C         41.40324        39.33057        -0.09850
C         42.58137        41.35607         0.80640
C         41.29841        42.12225         0.76673
C         42.67096        44.27449         0.73074
C         41.41845        43.55715         0.25967
C         42.62250        45.76659         0.97939
C         41.50411        46.42262         0.16481
C         42.69172        48.57039         0.38921
C         41.48099        47.91724         0.37006
C         42.67056        50.03110         0.03049
C         41.53623        50.78556         0.73308
C         42.71124        52.90560        -0.01438
C         41.49801        52.23573         0.25958
C         42.75947        54.31588        -0.18063
C         41.52719        55.02295        -0.29931
C         42.70616        57.19248        -0.04461
C         41.50848        56.48409        -0.26561
C         42.66592        58.57783         0.24804
C         41.46404        59.35466         0.15330
C         42.66496        61.60315        -0.10450
C         41.46194        60.80507         0.04304
C         45.21290        33.27435        -2.04428
C         44.00022        33.90704        -1.92176
C         45.10362        35.76754        -0.67076
C         43.99053        35.38623        -1.65540
C         45.10230        37.26471        -0.46096
C         43.91518        37.93216        -0.33234
C         45.13274        39.95053         0.44344
C         43.87931        39.31510         0.14693
C         45.15011        41.35618         0.87658
C         43.86744        42.11737         0.93921
C         45.14324        44.30245         0.76937
C         43.84240        43.59490         0.81937
C         45.15716        45.77845         0.89850
C         43.95899        46.46938         0.78447
C         45.18787        48.58101         0.50374
C         43.96238        47.88222         0.55120
C         45.19025        50.02796         0.29836
C         43.99996        50.71109         0.16234
C         45.27087        52.89464        -0.18785
C         43.96157        52.14164        -0.16471
C         45.23456        54.36254        -0.03345
C         44.02487        55.02464        -0.13212
C         45.22810        57.21158         0.34014
C         44.03715        56.52590        -0.29512
C         45.15326        58.57706         0.63633
C         43.86992        59.15637         0.73900
C         45.22800        61.61982         0.16567
C         43.89406        61.25305         0.45782
C         46.43342        33.93725        -1.75556
C         47.61489        35.81368        -0.69310
C         46.44937        35.19961        -1.10333
C         47.54665        37.07864         0.12253
C         46.42649        37.96806        -0.43490
C         47.60557        39.91993         0.55001
C         46.37878        39.31451         0.23891
C         47.63947        41.31515         1.00769
C         46.41292        42.08114         0.91056
C         47.66658        44.27415         1.34144
C         46.43263        43.54165         0.84099
C         47.64655        45.73627         0.94833
C         46.42815        46.45297         0.83827
C         47.67503        48.57162         0.62680
C         46.43373        47.87989         0.65443
C         47.70324        50.02361         0.51045
C         46.45773        50.75595         0.30495
C         47.73799        52.90028         0.14991
C         46.48474        52.12887         0.13301
C         47.65888        54.35635         0.36682
C         46.48578        55.05840         0.22033
C         47.64621        57.21305         0.66234
C         46.46791        56.51118         0.43536
C         47.67178        58.65384         0.94725
C         46.33684        59.42270         0.96592
C         47.63918        61.47920         0.43966
C         46.38169        60.87289         0.56711
C         48.84589        37.83805         0.14993
C         50.08851        39.96371         0.31767
C         48.86356        39.21643         0.34966
C         50.15950        41.35527         0.51799
C         48.96132        42.07663         1.01129
C         50.11831        44.23550         0.78625
C         48.94272        43.55255         0.95001
C         50.12832        45.69034         0.82781
C         48.88140        46.41155         0.82885
C         50.16053        48.50209         0.72086
C         48.89582        47.83913         0.71570
C         50.18240        49.96603         0.56006
C         48.90927        50.69640         0.57247
C         50.22673        52.86400         0.92987
C         49.01883        52.15969         0.40457
C         50.12773        54.31880         1.21594
C         48.87474        55.05999         0.84947
C         50.16368        57.26910         0.81095
C         48.94859        56.50194         0.39658
C         50.15564        58.66670         0.67802
C         48.92233        59.38435         0.68474
C         50.12988        61.47572         0.35504
C         48.89825        60.79313         0.52799
C         51.32884        42.10367         0.31212
C         52.57272        44.20939         0.55382
C         51.37784        43.51956         0.54132
C         52.65806        45.63537         1.02263
C         51.34604        46.37264         0.84245
C         52.66341        48.48552         0.99801
C         51.35676        47.78951         0.82394
C         52.70242        49.97502         1.09442
C         51.45287        50.73301         0.77111
C         52.68899        52.86122         1.38951
C         51.40087        52.18654         1.07649
C         52.72520        54.36477         1.37364
C         51.41009        55.10100         1.40441
C         52.68136        57.24210         0.69608
C         51.42553        56.58004         1.12064
C         52.62317        58.64420         0.42671
C         51.39875        59.37300         0.53103
C         52.59989        61.46782         0.09459
C         51.37117        60.79086         0.33816
C         53.83388        46.39524         0.45250
C         55.05432        48.54680         0.26076
C         53.89729        47.77612         0.56127
C         55.10133        49.97023         0.39127
C         53.95202        50.68568         0.78518
C         55.15459        52.90134         0.58404
C         53.99183        52.12582         1.06383
C         55.12990        54.28505         0.42943
C         53.96983        55.08919         0.89244
C         55.01824        57.16307        -0.05438
C         53.86755        56.51894         0.49558
C         54.96601        58.56655        -0.27783
C         53.81197        59.31765         0.02443
C         55.01967        61.45349        -0.35489
C         53.80327        60.76732        -0.09222
C         56.29257        50.72303         0.14173
C         57.50026        52.84375        -0.12824
C         56.32255        52.13426         0.18768
C         57.50740        54.25240        -0.28204
C         56.25799        54.99043        -0.12773
C         57.34336        57.02930        -1.02522
C         56.19589        56.37566        -0.37409
C         57.37261        58.52444        -1.17318
C         56.11623        59.29102        -0.86024
C         57.42272        61.39435        -0.92249
C         56.20178        60.75874        -0.67761
C         58.71893        54.93338        -0.47267
C         59.92450        57.12537        -0.96674
C         58.73373        56.29146        -0.97308
C         59.89026        58.53069        -1.10378
C         58.65351        59.24833        -1.15736
C         59.88014        61.36529        -1.16395
C         58.64260        60.66791        -1.11841
C         61.10617        59.27682        -1.12139
C         61.08849        60.66704        -1.17811
O         37.95999        53.08351        -1.56652
O         49.13940        54.70601         2.23745
O         45.89874        43.95827        -0.48233
O         51.38092        56.03137         2.51533
O         44.48141        41.67873         2.21542
O         39.20717        55.76550        -1.89647
O         51.02599        50.41742        -0.59846
O         46.99964        59.06296         2.19921
O         34.28880        52.16148        -0.92613
O         57.87229        56.38918        -2.18620
O         53.49477        52.33148         2.46177
O         43.77484        60.29092         1.51119
O         44.64266        52.44016        -1.44310
O         48.42051        41.55871         2.27882
O         56.43729        58.91001        -2.24999
O         41.82449        41.74918         2.05956
O         53.67824        54.89348         2.32433
O         38.90955        53.07413         1.90870
O         48.66783        52.58341        -0.96861
O         52.73097        49.15689         2.31898
O         39.01434        50.71364         2.44445
H         38.85447        51.68188         2.73024
O         47.59357        44.22222         2.79841
H         47.82720        43.29843         3.06202
O         42.34418        50.09191        -1.39616
H         43.16451        49.93075        -1.90822
O         36.33577        56.69752        -2.29773
H         37.12136        56.30798        -2.74369
O         37.59128        48.56874         2.35987
H         38.34427        49.10836         2.71682
O         49.06941        56.37804        -1.07445
H         49.02449        57.27828        -1.46143
O         52.89343        45.57227         2.47883
H         52.92142        46.49612         2.81130
O         44.31204        36.03045        -2.93811
H         45.18033        35.67426        -3.22713
O         37.89355        50.05814        -1.00947
H         37.02669        49.91983        -1.44378
O         46.77872        38.20301        -1.83611
H         46.02680        38.66553        -2.26288
O         41.81521        50.80306         2.15532
H         40.95081        50.94330         2.61521
O         42.24999        45.93426         2.37318
H         42.90753        45.46933         2.93186
O         44.25365        56.75519        -1.74455
H         43.65180        56.14962        -2.22958
O         44.80285        35.17995         0.62002
H         45.47480        35.53671         1.24905
O         35.65766        56.89977         1.29302
H         34.91728        57.25609         1.82739
O         41.63409        43.39023        -1.18317
H         41.75749        44.30302        -1.54891
O         39.49434        40.88576         1.83522
H         40.28378        40.88730         2.43552
O         36.35119        51.08003         2.16256
H         36.58807        50.23046         2.60884
O         47.15008        36.71654         1.49342
H         47.93790        36.35133         1.94845
O         41.86440        46.21117        -1.24545
H         41.30486        46.80582        -1.78968
H         29.41889        56.59266         0.04263
H         28.18287        58.72839        -0.12915
H         30.32643        62.46915        -0.45727
H         28.18635        61.21069        -0.30897
H         31.97426        52.74764         1.41486
H         30.69658        54.50903         0.44594
H         32.79176        62.49744        -0.49253
H         34.28872        48.00036         0.33373
H         32.98902        49.88757         1.02146
H         35.26865        62.52347        -0.43439
H         36.73724        43.87847        -0.03827
H         35.54164        45.97415         0.01073
H         37.75406        62.53000        -0.32197
H         39.31234        39.52396        -0.54578
H         37.90921        41.75683        -0.15051
H         40.20604        62.53643        -0.25917
H         41.73819        35.49791        -1.52943
H         40.50010        37.50473        -0.87249
H         42.58956        62.51882        -0.70948
H         45.25225        32.22606        -2.37636
H         43.06399        33.38129        -2.16045
H         45.39991        62.53829        -0.41574
H         47.38669        33.42823        -1.96156
H         48.59217        35.36761        -0.93888
H         47.66848        62.55098         0.19080
H         49.79438        37.28809         0.04824
H         51.01013        39.42806         0.04326
H         50.12083        62.56494         0.19945
H         52.25540        41.58383         0.02520
H         53.51332        43.66379         0.38064
H         52.59612        62.56324        -0.00757
H         54.72415        45.83144         0.13404
H         55.96711        48.02097        -0.05568
H         55.03229        62.55305        -0.31938
H         57.21092        50.18625        -0.13889
H         58.42673        52.28444        -0.32402
H         57.47523        62.49178        -0.85970
H         59.67105        54.41128        -0.30020
H         60.88462        56.64431        -0.72709
H         59.87733        62.46453        -1.16046
H         62.06305        58.73617        -1.10358
H         62.03657        61.22219        -1.20788
