         480
 CSIRO Nanostructure Databank - Neutral Graphene Oxide Data Set
C         38.03856        49.35487        -0.50464
C         36.97911        49.76929        -1.29983
C         38.01888        51.93260        -1.56821
C         36.96753        51.06663        -1.83310
C         40.15757        48.60524         1.36781
C         40.23184        49.79478         0.62277
C         39.11896        50.22013        -0.21767
C         40.22421        52.42583        -0.49104
C         39.10931        51.53165        -0.76213
C         40.18551        53.78521        -0.86067
C         42.33642        49.04227         2.32017
C         41.16963        48.27308         2.26352
C         42.53412        50.16616         1.48322
C         41.40129        50.61071         0.72714
C         42.52332        52.78072         0.35003
C         41.38779        51.93425         0.16693
C         42.46800        54.14943        -0.06917
C         41.26856        54.62311        -0.63951
C         46.27752        47.12459         4.46137
C         44.93944        47.63915         4.30087
C         45.29318        49.00575         2.21678
C         44.46529        48.38455         3.23869
C         45.09354        50.29126         1.66986
C         43.78745        50.90658         1.40687
C         44.95585        53.01173         0.86641
C         43.72536        52.20123         0.87713
C         44.91310        54.45393         0.47336
C         43.62708        55.02638         0.01901
C         44.84114        57.10908        -0.45764
C         43.63120        56.35053        -0.36321
C         48.40532        44.80054         3.27504
C         48.44162        46.31502         3.31343
C         47.03100        46.79375         3.38359
C         47.75558        48.88621         1.63834
C         46.54384        48.31799         1.94340
C         47.72265        50.38189         1.41264
C         46.30311        50.96385         1.20154
C         47.38396        52.99396         0.22328
C         46.22281        52.26605         0.77076
C         47.36626        54.48037         0.16999
C         46.17657        55.15700         0.10643
C         47.32087        57.30547        -0.73355
C         46.08608        56.55412        -0.26668
C         47.40214        58.74372        -0.27534
C         50.55817        44.70317         2.14607
C         49.39826        44.07104         2.72550
C         50.51785        46.16945         1.95772
C         49.23225        46.90291         2.13534
C         50.09860        48.72792         0.68381
C         49.02057        48.12870         1.51435
C         49.98984        50.10057         0.25861
C         48.60774        50.71481         0.20084
C         49.94461        52.99221         0.11933
C         48.63180        52.22833        -0.04813
C         49.79510        54.38332        -0.53740
C         48.68051        55.20890         0.11572
C         49.82283        57.27412        -0.59209
C         48.62672        56.60549        -0.45331
C         49.84675        58.73915        -0.58104
C         48.58008        59.40161        -0.28155
C         52.82213        41.79515         1.60580
C         51.77173        42.55285         2.03629
C         52.76246        44.56512         1.00526
C         51.67744        43.95941         1.75196
C         52.68134        45.90778         0.58179
C         51.59468        46.77225         1.08127
C         52.25579        48.55228        -0.57291
C         51.27149        48.02416         0.38547
C         52.27907        50.06345        -0.72002
C         51.11612        50.80447        -0.19733
C         52.31182        52.88312        -0.75829
C         51.14073        52.21821        -0.38146
C         52.28032        54.34757        -0.97841
C         51.09360        55.14337        -0.58363
C         52.31990        57.23298        -1.00039
C         51.07590        56.50793        -0.66286
C         52.30609        58.72408        -0.94448
C         51.03966        59.44149        -0.65339
C         52.32853        61.53359        -0.62545
C         51.16325        60.87074        -0.44113
C         55.04101        40.14981         0.63014
C         54.99684        41.58005         0.38789
C         53.90789        42.36441         0.86036
C         54.94737        44.37630        -0.12097
C         53.87093        43.76538         0.58574
C         54.84835        45.73247        -0.52833
C         53.69451        46.45956        -0.23801
C         54.80695        48.57961        -0.97506
C         53.50984        47.76697        -0.96681
C         54.78552        50.03681        -0.99986
C         53.57219        50.75900        -0.92060
C         54.81249        52.90041        -0.97478
C         53.56048        52.18222        -0.92695
C         54.84482        54.31929        -0.95886
C         53.60406        55.08368        -1.11001
C         54.79903        57.19577        -0.60550
C         53.61340        56.52931        -0.85497
C         54.77573        58.68273        -0.22934
C         53.57268        59.41512        -0.74033
C         54.86702        61.57424        -0.86134
C         53.57533        60.85223        -1.16136
C         54.91200        62.97188        -0.82095
C         57.20713        39.91211        -0.52150
C         56.06837        39.36254         0.23571
C         57.23030        41.39838        -0.73804
C         56.09069        42.21416        -0.26117
C         57.26260        44.28849        -1.00558
C         56.09339        43.60410        -0.48924
C         57.28386        45.66581        -1.15376
C         55.95747        46.37990        -1.33016
C         57.25432        48.58713        -1.51837
C         55.97995        47.88426        -1.11858
C         57.27053        50.04538        -1.11024
C         56.04235        50.74683        -1.03265
C         57.28617        52.89757        -0.91276
C         56.04799        52.18008        -0.95519
C         57.29660        54.31906        -0.83381
C         56.05629        55.04231        -0.82527
C         57.29377        57.15325        -0.39702
C         56.02963        56.45925        -0.61017
C         57.29131        58.69277        -0.39916
C         56.04711        59.41364        -0.58255
C         57.31924        61.54285        -0.54377
C         56.07243        60.82765        -0.72439
C         57.32072        62.95781        -0.42056
C         56.10100        63.65522        -0.58414
C         59.76899        37.12303        -0.27643
C         58.54739        37.81861        -0.41654
C         59.76164        39.99932        -0.33078
C         58.50178        39.18980        -0.50984
C         59.72963        41.39349        -0.93599
C         58.53095        42.07437        -0.97386
C         59.80829        44.25154        -1.38066
C         58.47566        43.50033        -1.31252
C         59.79979        45.69773        -1.10816
C         58.52998        46.41449        -1.16897
C         59.70541        48.55439        -0.77925
C         58.49557        47.80847        -1.13198
C         59.74030        50.03321        -0.94135
C         58.50271        50.74486        -0.99055
C         59.77035        52.87658        -0.89173
C         58.52916        52.17919        -0.91941
C         59.77863        54.32200        -0.86233
C         58.54291        55.03142        -0.81886
C         59.76490        57.15863        -0.81945
C         58.55538        56.45108        -0.71167
C         59.80196        58.61853        -0.66800
C         58.53610        59.39562        -0.90701
C         59.71608        61.46047        -0.00831
C         58.55179        60.82608        -0.41765
C         59.76130        62.90158         0.08343
C         58.56879        63.64629        -0.16573
C         59.81995        65.71806         0.09789
C         58.63432        65.06001        -0.15569
C         62.29171        35.67755         0.05203
C         62.25330        37.07417        -0.22216
C         61.00768        37.79106        -0.33211
C         62.22696        39.86907        -0.80848
C         61.02441        39.20932        -0.57394
C         62.23663        41.28071        -1.36709
C         60.98269        42.08372        -1.12152
C         62.29358        44.19490        -1.12308
C         61.04243        43.47001        -1.19844
C         62.28289        45.61463        -1.01392
C         61.02292        46.33748        -0.93777
C         62.28736        48.55011        -0.72559
C         61.00316        47.78227        -0.63381
C         62.21708        49.97595        -1.18810
C         60.95673        50.72712        -0.96247
C         62.27019        52.84061        -0.99773
C         61.00174        52.15129        -0.96978
C         62.30765        54.32201        -0.65373
C         61.00098        55.04809        -0.89306
C         62.21978        57.29813        -1.18906
C         60.98608        56.44516        -0.95718
C         62.22221        58.43880        -0.14748
C         60.95945        59.26051        -0.35527
C         62.25830        61.36771         0.36229
C         60.95687        60.66362         0.13023
C         62.24330        62.85622         0.72959
C         60.98173        63.59222         0.32435
C         62.26331        65.70894         0.63327
C         61.01222        64.99876         0.36147
C         62.28846        67.08351         0.90360
C         64.73404        35.65946         0.11056
C         63.47901        35.00429         0.24201
C         64.74160        37.06332        -0.27422
C         63.48169        37.78767        -0.34984
C         64.71720        39.91843        -0.67650
C         63.45640        39.16025        -0.67881
C         64.70754        41.33780        -1.07061
C         63.51861        42.04595        -1.11078
C         64.78133        44.18544        -0.99800
C         63.52401        43.47915        -1.09726
C         64.76465        45.63109        -0.94049
C         63.53718        46.30266        -0.92686
C         64.81666        48.47425        -1.23660
C         63.55587        47.78443        -0.83063
C         64.81643        49.96574        -1.39940
C         63.50267        50.72452        -1.43327
C         64.75131        52.89094        -1.06213
C         63.48374        52.18717        -1.19037
C         64.78461        54.27380        -0.95592
C         63.49206        54.98763        -1.35685
C         64.75117        57.15562        -0.59372
C         63.53688        56.50075        -1.17781
C         64.69560        58.59364        -0.22542
C         63.50553        59.25330        -0.19379
C         64.78416        61.52237        -0.42317
C         63.40769        60.74510        -0.43359
C         64.72322        62.90076         0.23047
C         63.51242        63.59358         0.36638
C         64.73552        65.71084         0.72426
C         63.50572        65.00197         0.57900
C         64.73068        67.10523         1.02389
C         63.48919        67.76230         1.11442
C         67.14934        33.27633         1.65636
C         66.00588        33.75929         1.12239
C         67.21396        35.69253         0.15974
C         65.95520        35.05811         0.48477
C         67.16510        36.83408        -0.86023
C         65.94493        37.67679        -0.57432
C         67.30736        39.77293        -0.93943
C         66.03341        39.13019        -0.61915
C         67.29784        41.22997        -1.12811
C         65.99031        42.03599        -1.21776
C         67.30596        44.21286        -1.22250
C         65.99344        43.48922        -1.04780
C         67.26060        45.66318        -0.79262
C         66.03584        46.35999        -0.84563
C         67.27712        48.50386        -0.79594
C         66.06601        47.77791        -0.87300
C         67.25220        49.97688        -0.83045
C         66.06787        50.67024        -1.05999
C         67.27297        52.86756        -0.53241
C         66.02777        52.13949        -1.08135
C         67.13190        54.25349        -0.08034
C         65.95698        54.98140        -0.45783
C         66.96085        57.06148         0.61581
C         65.89550        56.35450        -0.17677
C         67.10605        58.53154         0.27359
C         65.96972        59.27467        -0.03887
C         67.18831        61.36158         0.25428
C         65.99222        60.70976         0.01800
C         67.20788        62.80594         0.67952
C         65.94058        63.59200         0.43580
C         67.20028        65.67840         0.96702
C         65.96683        64.98593         0.68248
C         67.22381        67.06245         1.24252
C         65.98888        67.79827         1.25103
C         67.23297        69.86406         1.63664
C         66.02782        69.18341         1.46905
C         69.73804        32.34222         2.92702
C         69.67161        33.25920         1.71897
C         68.39719        34.12022         1.72413
C         69.64915        35.46991        -0.10390
C         68.39991        35.15875         0.61607
C         69.64667        36.72456        -1.04348
C         68.47445        37.61339        -0.96592
C         69.76028        39.82787        -1.18310
C         68.51810        39.02673        -1.02394
C         69.77773        41.20245        -0.59525
C         68.48662        41.97124        -0.59515
C         69.76458        44.21376        -0.55553
C         68.47932        43.46872        -0.60538
C         69.74097        45.62626        -0.51117
C         68.48001        46.36755        -0.62560
C         69.80858        48.50505        -0.69782
C         68.48121        47.78369        -0.60923
C         69.74375        49.97737        -0.29615
C         68.44147        50.69639        -0.39669
C         69.42085        52.69715         0.76563
C         68.38718        52.03815        -0.07030
C         69.44282        54.17175         0.84776
C         68.26567        54.90831         0.50297
C         69.45970        57.00468         0.95783
C         68.26333        56.31563         0.66053
C         69.52214        58.43831         0.78029
C         68.37299        59.18225         0.45726
C         69.64023        61.32297         0.48176
C         68.42870        60.63104         0.37626
C         69.71141        62.79335         0.29538
C         68.42143        63.59793         0.18618
C         69.76825        65.64642         1.17812
C         68.44098        64.89938         0.99495
C         69.72173        67.10958         1.27579
C         68.47912        67.77525         1.40326
C         69.72268        69.93008         1.68795
C         68.46684        69.19858         1.58616
C         69.74890        71.30861         2.00467
C         72.14186        32.15419         2.59891
C         70.91114        31.79044         3.29076
C         72.17742        33.21720         1.77210
C         70.95942        34.11747         1.62638
C         72.10112        35.37869        -0.24791
C         70.95146        34.96159         0.36171
C         72.10940        36.41359        -1.24414
C         70.97834        37.12081        -1.52099
C         72.10291        40.23379        -1.92956
C         70.92458        39.41303        -1.78817
C         72.18255        41.47354        -1.39020
C         71.05044        42.02893        -0.63505
C         72.18432        44.22382        -0.28103
C         70.98548        43.51238        -0.49143
C         72.16385        45.59446        -0.10453
C         70.95407        46.32354        -0.23089
C         71.93162        48.37421         0.73850
C         70.92519        47.74066        -0.02370
C         71.92182        49.71763         1.02723
C         70.87374        50.59318         0.48631
C         71.87008        52.73519         1.45444
C         70.67620        51.94073         1.12012
C         71.80311        54.07951         1.58465
C         70.59719        54.84007         1.30527
C         71.81490        57.00529         1.68287
C         70.62751        56.27000         1.32069
C         71.93879        58.33278         1.42422
C         70.84724        59.07277         0.77839
C         72.09183        61.36613         1.09249
C         70.92186        60.61363         0.58088
C         72.11938        62.71100         1.13289
C         71.00884        63.51006         0.57035
C         72.13466        65.75515         0.55357
C         71.00691        64.99086         0.75250
C         72.11988        67.15007         0.79387
C         70.95110        67.83236         1.16081
C         72.15726        70.00190         1.49446
C         70.95341        69.26452         1.43667
C         72.15575        71.35621         1.79889
C         70.94399        72.01159         2.06085
O         65.44032        39.75173         0.60257
O         51.65650        46.89637         2.56458
O         52.80400        54.71597        -2.30460
O         69.11253        64.88660         2.27757
O         47.78511        52.54142        -1.18306
O         64.52112        57.05014        -2.09190
O         51.74394        49.18737        -1.79295
O         57.38274        57.95042         0.86516
O         69.39289        35.36231        -1.55134
O         60.23111        48.13849         0.55411
O         69.58574        52.01812         2.08645
O         70.62746        41.31480         0.58319
O         46.45496        46.92186         2.09902
O         71.21906        59.68622        -0.50909
O         43.15008        48.78427         3.41796
O         64.91551        49.06629        -2.56569
O         70.64493        63.11915        -0.80839
O         68.17946        42.72650         0.62067
O         59.07660        43.86697        -2.59160
O         71.04120        38.17792        -2.43885
O         70.83012        50.70862        -0.99022
O         65.13114        61.80575        -1.76689
O         61.67421        60.60374         1.46428
O         66.78182        41.62937        -2.43897
O         44.94646        54.07872         1.91461
O         67.01779        52.72745        -1.97564
O         56.85789        40.47998        -1.84097
O         62.68502        50.24366        -2.55085
O         52.22873        57.99011        -2.28179
O         63.10865        48.33490         0.47417
O         69.59195        32.42953         0.53996
H         70.38694        31.85628         0.52150
O         53.45582        60.84890        -2.63295
H         52.86260        60.10567        -2.88351
O         67.35397        62.74158         2.13526
H         66.50933        62.42022         2.51486
O         62.57092        54.41923         0.77538
H         61.75805        54.16502         1.26002
O         62.23215        41.08500        -2.82851
H         63.08497        40.67336        -3.08472
O         67.60598        44.24695        -2.65357
H         66.85571        44.67517        -3.11689
O         68.36477        34.81220         3.00899
H         67.56308        35.37649         3.02453
O         62.06605        57.90577        -2.48240
H         62.57394        58.75154        -2.49324
O         71.00370        35.05937         2.72538
H         70.65754        34.60642         3.52372
O         49.05384        55.43624         1.52743
H         48.29468        55.87173         1.97096
O         70.13789        48.47990        -2.12508
H         70.74400        49.24199        -2.27916
O         50.20434        53.09178         1.53731
H         49.70984        53.86491         1.90528
O         62.15135        57.83403         1.16622
H         62.03746        58.57338         1.80686
O         59.78401        40.28483         1.13116
H         59.94757        39.43306         1.59103
O         63.30538        54.75809        -2.76822
H         63.87001        55.40511        -3.24660
O         55.68111        46.21668        -2.76442
H         54.75098        46.54046        -2.90843
O         66.46597        57.04056         2.01877
H         67.16568        57.44120         2.57795
O         62.92561        60.77435        -1.80823
H         63.71183        61.15044        -2.32169
O         49.12603        46.73534         4.51960
H         50.08785        46.58925         4.38751
O         62.25805        62.93137         2.19521
H         61.76560        62.13814         2.51608
O         53.29874        47.35297        -2.35777
H         52.76380        48.07125        -2.77994
O         48.27766        51.05647         2.56399
H         47.79156        50.76666         3.36339
O         47.98105        50.06071        -0.92680
H         47.69363        50.77291        -1.54989
O         68.20962        63.96204        -1.18540
H         69.03867        63.76906        -1.68045
O         49.44522        54.22746        -1.92830
H         50.24187        53.95113        -2.42816
O         66.92406        36.23552        -2.17221
H         67.69049        35.63704        -2.34661
O         58.38484        59.46363        -2.35797
H         57.69481        60.12873        -2.56681
O         47.18398        57.35755        -2.19630
H         48.04221        57.65698        -2.56529
O         57.22822        48.58251        -2.99152
H         56.85431        47.70628        -3.26501
O         54.70675        58.68788         1.25165
H         55.59881        58.38670         1.55806
H         38.03242        48.32928        -0.11195
H         36.15253        49.07847        -1.51620
H         37.99954        52.93809        -2.00960
H         36.13178        51.39402        -2.46666
H         39.26252        47.97184         1.32309
H         39.28537        54.20633        -1.32715
H         41.05797        47.41696         2.94102
H         41.18792        55.67341        -0.94936
H         46.66675        46.95280         5.47366
H         44.23886        47.48959         5.13572
H         44.76344        58.14668        -0.81269
H         42.70271        56.84837        -0.67481
H         47.54511        44.29764         3.73963
H         46.47156        59.28522        -0.04874
H         49.32602        42.97501         2.73801
H         48.59503        60.47227        -0.03252
H         52.83023        40.72715         1.85826
H         50.98519        42.06605         2.62685
H         52.35005        62.61803        -0.44400
H         50.28155        61.43614        -0.10542
H         54.21949        39.68374         1.18984
H         53.99451        63.55603        -0.97361
H         56.07890        38.29967         0.51756
H         56.07393        64.75116        -0.53561
H         59.72923        36.03214        -0.16796
H         57.61644        37.23468        -0.45316
H         59.82964        66.81588         0.08309
H         57.73599        65.65625        -0.36133
H         61.35432        35.11482         0.15245
H         61.35129        67.65140         0.98035
H         63.44318        33.93511         0.49079
H         63.44215        68.83197         1.35796
H         67.15588        32.28745         2.13658
H         65.09226        33.14959         1.16480
H         67.19506        70.95228         1.77634
H         65.09869        69.76805         1.48490
H         68.80761        32.05792         3.44019
H         68.81503        71.84362         2.22244
H         73.04544        31.55543         2.78476
H         70.96468        31.06328         4.11387
H         73.13127        33.50806         1.30913
H         73.07620        34.98786         0.07198
H         73.06188        36.71140        -1.70029
H         72.93343        39.82541        -2.52108
H         73.05348        42.11035        -1.60071
H         73.13759        43.68241        -0.21156
H         73.10634        46.12495         0.08467
H         72.71700        47.75310         1.19285
H         72.66455        50.13498         1.72007
H         72.83742        52.22297         1.55719
H         72.72368        54.62239         1.83516
H         72.66516        56.47740         2.13462
H         72.89078        58.83959         1.63340
H         72.96265        60.79893         1.45123
H         72.98193        63.24089         1.56361
H         73.07295        65.27798         0.23683
H         73.06106        67.69953         0.66446
H         73.11874        69.50405         1.31052
H         73.10319        71.91067         1.84410
H         70.94021        73.08113         2.31255
