         232
 CSIRO Nanostructure Databank - Neutral Graphene Oxide Data Set
C        -11.12873         0.67233         0.06548
C         -9.93167         1.43234         0.39214
C         -8.76305         0.72192         0.98417
C         -7.47938         1.46498         1.21297
C         -6.19133         0.71152         1.02874
C         -4.90129         1.44883         1.12079
C         -3.61344         0.71205         0.75466
C         -2.41045         1.44567         0.30232
C         -1.25897         0.78757        -0.10108
C         -0.01812         1.53154        -0.31133
C          1.23284         0.82807        -0.67204
C          2.51222         1.53199        -0.44939
C          3.74927         0.77936        -0.40653
C          4.97380         1.45260        -0.32175
C          6.24639         0.76232        -0.29218
C          7.44756         1.45393        -0.19658
C          8.77469         0.75099        -0.22752
C          9.88074         1.53016         0.45442
C         11.01394         0.77340         0.92892
C         -9.81056         2.72870        -0.03340
C         -8.61118         3.51047         0.14548
C         -7.57567         3.01388         1.14606
C         -6.24023         3.72639         1.00539
C         -4.88569         2.95951         1.05906
C         -3.69322         3.65589         0.56906
C         -2.36929         2.91851         0.63409
C         -1.27227         3.62802        -0.12006
C          0.01195         2.90963        -0.24256
C          1.22920         3.66824        -0.38928
C          2.46283         2.92248        -0.34898
C          3.69502         3.68085        -0.14374
C          4.99233         2.91140        -0.13927
C          6.23382         3.66648        -0.44617
C          7.52856         2.91433        -0.38255
C          8.71634         3.67566         0.05769
C          9.85548         2.90376         0.49920
C         -8.53365         4.78009        -0.35799
C         -7.36548         5.62899        -0.18178
C         -6.21728         5.05705         0.43715
C         -4.97176         5.84543         0.67669
C         -3.69649         5.05465         0.46081
C         -2.51942         5.81060         0.21946
C         -1.27383         5.11532        -0.14439
C          0.00726         5.85237        -0.24780
C          1.23567         5.08347        -0.38666
C          2.49093         5.80517        -0.43664
C          3.68735         5.12863        -0.40615
C          4.98931         5.81842        -0.54938
C          6.24283         5.12087        -0.23755
C          7.43928         5.80969        -0.08786
C          8.65859         5.05483         0.13825
C         -7.40712         6.96910        -0.57150
C         -6.17586         7.77482        -0.61237
C         -4.92965         7.13246        -0.11126
C         -3.70834         7.95583         0.07505
C         -2.51808         7.23562         0.16295
C         -1.22955         7.95109         0.21067
C          0.00646         7.22671        -0.14977
C          1.20903         8.01187        -0.63843
C          2.49179         7.30664        -0.17502
C          3.72713         8.04479        -0.66061
C          5.03616         7.31165        -0.65384
C          6.27318         7.99894        -0.22603
C          7.41624         7.26191        -0.00821
C         -6.15706         9.24605        -0.73645
C         -5.02156         9.96380        -0.55726
C         -3.73457         9.36086        -0.21433
C         -2.55505        10.09163        -0.23624
C         -1.26418         9.48306         0.08109
C          0.01025        10.18010        -0.14750
C          1.22619         9.49196        -0.24178
C          2.45144        10.16568        -0.12237
C          3.73052         9.52732        -0.45717
C          5.03987        10.15341        -0.15863
C          6.19008         9.44041        -0.03741
C        -11.18054        -0.67910         0.08110
C        -10.01447        -1.50287         0.46983
C         -8.73595        -0.77326         0.86225
C         -7.43928        -1.44861         0.68051
C         -6.18769        -0.66491         0.77865
C         -4.93012        -1.36147         0.52776
C         -3.71301        -0.71230         0.41060
C         -2.46008        -1.40961         0.09904
C         -1.21301        -0.67725        -0.13016
C         -0.01164        -1.35502        -0.33798
C          1.24090        -0.67486        -0.74637
C          2.54767        -1.38014        -0.62645
C          3.73572        -0.68600        -0.49428
C          5.01542        -1.40207        -0.37207
C          6.22633        -0.69574        -0.25254
C          7.45736        -1.39375        -0.00685
C          8.67376        -0.68830         0.19140
C          9.83235        -1.36118         0.60267
C         11.01253        -0.59135         0.94753
C         -9.88932        -2.88206         0.01262
C         -8.69459        -3.57025         0.19740
C         -7.47431        -2.81987         0.47903
C         -6.20425        -3.57316         0.51810
C         -4.98436        -2.79882         0.04660
C         -3.70458        -3.57924         0.37132
C         -2.45895        -2.78986         0.06390
C         -1.20677        -3.52916         0.21713
C          0.10571        -2.78069        -0.00092
C          1.30721        -3.57163        -0.36492
C          2.53317        -2.86545        -0.91678
C          3.79963        -3.58978        -0.51328
C          5.04516        -2.83951        -0.34724
C          6.25637        -3.53160        -0.17219
C          7.46414        -2.81955         0.06577
C          8.68106        -3.50523         0.38112
C          9.81768        -2.77970         0.69742
C         -8.65343        -4.99068        -0.03014
C         -7.48899        -5.76380         0.06391
C         -6.22278        -5.06579         0.41088
C         -4.98412        -5.75269        -0.07584
C         -3.74711        -4.95981        -0.28384
C         -2.43653        -5.68202        -0.57756
C         -1.22700        -5.01594         0.08848
C          0.08188        -5.71620        -0.07890
C          1.30462        -4.93024        -0.30248
C          2.51942        -5.73174        -0.71710
C          3.76634        -4.94587        -0.36843
C          4.98858        -5.66888         0.03378
C          6.31767        -5.03936        -0.36311
C          7.46682        -5.74372         0.35282
C          8.77699        -5.00605         0.22255
C         -7.42622        -7.13436        -0.25901
C         -6.19290        -7.87569        -0.25243
C         -4.97000        -7.22096        -0.06671
C         -3.68832        -7.97272         0.19912
C         -2.45745        -7.14889        -0.15395
C         -1.23717        -7.69568         0.04198
C          0.01590        -7.14239        -0.61218
C          1.28005        -7.92141        -0.33591
C          2.48233        -7.18403        -0.23257
C          3.66663        -7.86228         0.09357
C          4.94173        -7.12948         0.26984
C          6.24056        -7.89358         0.07878
C          7.41082        -7.07260         0.58894
C         -6.14687        -9.27880        -0.56435
C         -4.93543        -9.93374        -0.76313
C         -3.68104        -9.35013        -0.48157
C         -2.48038       -10.06822        -0.82389
C         -1.22593        -9.80836        -0.31179
C          0.13822       -10.21047        -0.81012
C          1.29219        -9.33954        -0.29179
C          2.49285        -9.98806         0.03998
C          3.67123        -9.26145         0.28687
C          4.92010        -9.91726         0.68060
C          6.11276        -9.28891         0.63896
O         -1.60381         4.28627        -1.37035
O          6.59287        -5.30858        -1.73253
O         -4.90843         6.24104         2.14491
O         -9.59835        -1.36544         1.88366
O          1.12051         7.95834        -2.07896
H          1.94859         8.36695        -2.43580
O         -0.40605        -3.06309         1.34552
O         -3.62139        -3.85041         1.78497
H         -3.47927        -3.01058         2.26943
O          6.92557         3.30198        -1.68019
O          9.18463        -5.24803        -1.13853
H          8.33771        -5.23432        -1.67796
O          3.61322         8.88501        -1.83653
O         -5.46595         3.59378         2.24261
O          6.44588        -8.03038        -1.35453
H          6.55399        -7.10022        -1.71437
O          9.16647         0.72447        -1.64869
H          8.48788         0.20869        -2.13414
O         -8.08359         3.49877         2.41398
H         -8.48048         2.71965         2.87820
O         -1.15122         8.79100         1.40577
O          2.49146        -5.83656        -2.17030
H          2.44217        -4.91492        -2.52832
O         -3.66896        -8.24538         1.63781
H         -2.77042        -8.59237         1.84704
O          2.55949         7.42910         1.27440
H          1.75076         7.02689         1.65827
O         -4.64071        -5.15235        -1.41846
O         -5.21671         7.05064        -1.54180
O         -2.19818        -5.53306        -1.98816
H         -3.07671        -5.56170        -2.43384
O         -8.30930         1.03269         2.35145
O          5.14023         6.50779        -1.86991
O          4.93582        -6.19142         1.40734
O         -0.59732        -5.66343         1.22442
O         -6.26045         6.46980         2.59593
H         -6.51999         5.58532         2.96173
O         -1.98139         2.99085         2.04321
H         -2.63552         2.44917         2.54861
O         -1.14270        -8.91559         0.76467
O         -0.18454        -7.13501        -2.04012
H         -0.06063        -8.05560        -2.36890
O          0.10990       -10.10211        -2.24618
H          1.00410       -10.31261        -2.58816
O          1.13091         0.13397        -1.97525
O          4.39778         3.35447         1.13025
O         -5.06484        -2.68663        -1.39931
H         -5.92956        -2.28826        -1.62920
O         -6.11342        -4.42164         1.71266
O          2.40943        -2.99277        -2.37969
H          3.14957        -2.49348        -2.78708
O         -3.98335         0.97737         2.17142
H         11.90165        -1.13645         1.29725
H         11.89454         1.32767         1.28761
H         10.71811         3.44602         0.91786
H          9.55903         5.61000         0.44272
H          8.34836         7.78055         0.26459
H          7.11991         9.96870         0.22360
H          5.05531        11.23875         0.02267
H          2.45442        11.22202         0.18807
H          0.01612        11.28054        -0.09308
H         -2.56352        11.12892        -0.60316
H         -5.05019        11.05756        -0.67433
H         -7.10309         9.76060        -0.96238
H         -8.33796         7.38582        -0.98414
H         -9.37932         5.18287        -0.93678
H        -10.65154         3.19695        -0.56881
H        -12.00583         1.24659        -0.26903
H        -12.09766        -1.19901        -0.23279
H        -10.77247        -3.40114        -0.38808
H         -9.59812        -5.48471        -0.30431
H         -8.35487        -7.66421        -0.51929
H         -7.08839        -9.81529        -0.75145
H         -4.95391       -10.96950        -1.13655
H         -2.57702       -10.86635        -1.57704
H          0.35150       -11.28459        -0.53016
H          2.51514       -11.08787         0.09418
H          4.85685       -10.96346         1.01836
H          7.02840        -9.82445         0.93361
H          8.30334        -7.60344         0.95986
H          9.55896        -5.42882         0.90597
H         10.74397        -3.30693         0.97129
