         324
 CSIRO Nanostructure Databank - Neutral Graphene Oxide Data Set
C          1.51045         1.95019         1.39815
C          1.49011         3.34470         1.43116
C          2.64054         1.26531         0.95738
C          2.60784         4.10101         1.00892
C          1.47176         6.27623         1.43960
C          1.48222         7.65954         1.44454
C          2.60969         5.55131         1.02762
C          2.61972         8.38950         1.04612
C          1.53226        10.59376         1.78254
C          1.58460        11.93813         1.94229
C          2.51976         9.87032         0.96442
C          2.68753        12.73978         1.45457
C          1.62655        14.87727         2.23901
C          1.69719        16.22973         2.46686
C          2.72997        14.15774         1.68155
C          2.87224        16.97409         2.14518
C          2.93546        18.38613         2.37507
C          3.78318         1.97308         0.52325
C          3.76120         3.41234         0.53728
C          4.95804         1.26661         0.13932
C          4.90176         4.15452         0.10613
C          3.77560         6.27615         0.63339
C          3.79019         7.71288         0.63881
C          4.92984         5.54906         0.20783
C          4.98468         8.45206         0.22012
C          3.73040        10.65279         0.50354
C          3.78672        12.09340         0.85067
C          4.98898         9.90482         0.22264
C          4.95764        12.82022         0.53159
C          3.90990        14.88333         1.34856
C          3.97970        16.30288         1.57922
C          5.02837        14.19420         0.80283
C          5.14549        17.06436         1.21435
C          4.05212        19.10927         2.04342
C          5.18424        18.46843         1.44553
C          6.10724         1.93683        -0.29386
C          6.03370         3.39989        -0.48420
C          7.31356         1.27482        -0.58246
C          7.30923         4.11059        -0.83820
C          6.17858         6.30503        -0.03743
C          6.14699         7.77836        -0.16236
C          7.38265         5.57647        -0.52788
C          7.34380         8.47648        -0.60589
C          6.14715        10.60543        -0.04777
C          6.08475        12.08847        -0.10556
C          7.37084         9.93705        -0.48753
C          7.34214        12.82127        -0.38009
C          6.28141        14.95479         0.58832
C          6.26442        16.43430         0.61230
C          7.46036        14.25405         0.02869
C          7.38053        17.17719         0.19247
C          6.34895        19.19038         1.09007
C          7.42712        18.57142         0.46336
C          8.56378         1.93546        -0.74333
C          8.59540         3.38153        -0.78378
C          9.71523         1.11411        -0.97525
C          9.76186         4.17729        -0.87629
C          8.44955         6.33876        -1.23437
C          8.45498         7.80119        -1.11878
C          9.75026         5.55567        -1.42290
C          9.64166         8.49842        -1.68634
C          8.52250        10.64027        -0.79376
C          8.65469        12.07829        -0.32636
C          9.63221        10.03464        -1.64001
C          9.76996        12.90091        -0.95493
C          8.51902        15.02737        -0.69307
C          8.47351        16.52664        -0.59852
C          9.76157        14.26599        -1.00517
C          9.74669        17.29825        -0.82614
C          8.60635        19.42741         0.04891
C          9.87430        18.65032        -0.23151
C         11.01220         1.54130        -0.64302
C         11.02042         3.68224        -0.49870
C         12.28208         1.16321        -1.07584
C         12.24951         4.23628        -0.91251
C         11.03613         6.28838        -1.54204
C         10.95594         7.72840        -1.93544
C         12.23174         5.62170        -1.34911
C         12.26774         8.48500        -2.10374
C         11.00811        10.64001        -1.33055
C         11.01505        12.13379        -1.20231
C         12.22258         9.96872        -1.90180
C         12.20799        12.92977        -1.59915
C         10.96441        15.05157        -1.56465
C         11.00430        16.54448        -1.19822
C         12.23549        14.33449        -1.21277
C         12.30799        17.17649        -0.86534
C         11.08906        19.26056        -0.20931
C         12.32639        18.57354        -0.53817
C         13.44378         1.99086        -0.83938
C         13.43804         3.44377        -0.85954
C         14.67639         1.32731        -0.72908
C         14.70043         4.14230        -0.86456
C         13.57325         6.17284        -1.80607
C         13.60270         7.70121        -1.96908
C         14.72533         5.55618        -1.02713
C         14.84595         8.39838        -1.52778
C         13.29349        10.75168        -2.21287
C         13.44934        12.20722        -1.95294
C         15.13438         9.67472        -1.93280
C         14.74853        12.80114        -1.45569
C         13.51974        14.96326        -0.80264
C         13.51021        16.46418        -0.89820
C         14.77930        14.30249        -1.34892
C         14.75592        17.14026        -0.82052
C         13.54741        19.24035        -0.43072
C         14.77693        18.56095        -0.62975
C         15.91251         2.00447        -0.55369
C         15.92099         3.45493        -0.62563
C         17.07889         1.29670        -0.26352
C         17.10900         4.18729        -0.38537
C         15.86998         6.26461        -0.64390
C         15.81960         7.74669        -0.61626
C         17.05491         5.59046        -0.25413
C         17.07130         8.52249        -0.23952
C         16.15880        10.52176        -1.36450
C         16.01105        12.01305        -1.25196
C         17.16903         9.93799        -0.64515
C         17.31345        12.76245        -1.20732
C         15.96517        14.98357        -1.21883
C         15.98455        16.41919        -0.95533
C         17.27107        14.27637        -1.27483
C         17.20961        17.11485        -0.92047
C         16.02082        19.23380        -0.55572
C         17.23174        18.54082        -0.69110
C         18.38134         1.94990        -0.32208
C         18.40044         3.47166        -0.35218
C         19.59452         1.21852         0.21627
C         19.63990         4.16611         0.03300
C         18.25260         6.34128         0.21140
C         18.32279         7.80135         0.07438
C         19.59655         5.60880         0.32294
C         19.52310         8.47915         0.24729
C         18.28792        10.73400        -0.10698
C         18.47039        12.10315        -0.58830
C         19.50686         9.95993         0.40150
C         19.47299        12.96906         0.15140
C         18.49075        15.02477        -0.90371
C         18.45995        16.40359        -0.95697
C         19.69501        14.31218        -0.51979
C         19.72676        17.17223        -1.22914
C         18.48124        19.21578        -0.51163
C         19.71244        18.57430        -0.64566
C         20.87393         2.03054         0.15445
C         20.84464         3.48364         0.10114
C         22.05702         1.37286         0.32610
C         22.09028         4.22229         0.18413
C         20.84017         6.38971         0.19293
C         20.79147         7.78293         0.22108
C         22.08809         5.65165         0.13309
C         22.04022         8.56981         0.02837
C         20.80347        10.71947         0.57229
C         20.77770        12.22879         0.46738
C         22.09364        10.01196         0.35319
C         22.07057        12.92774         0.29953
C         20.91127        14.95536        -0.46953
C         21.00300        16.37135        -0.92741
C         22.12308        14.27214        -0.01160
C         22.24315        17.13483        -0.59807
C         20.92622        19.26022        -0.43736
C         22.18117        18.61124        -0.44255
C         23.32438         2.06255         0.38253
C         23.32138         3.51718         0.25780
C         24.47225         1.35173         0.65848
C         24.53317         4.23751         0.34743
C         23.31820         6.35035         0.17688
C         23.36628         7.81429         0.02845
C         24.53453         5.65711         0.34137
C         24.61368         8.55122         0.32784
C         23.29489        10.68223         0.41587
C         23.29171        12.16771         0.78452
C         24.57378         9.96594         0.36958
C         24.55140        12.88323         0.36428
C         23.37269        15.03127         0.14227
C         23.41109        16.42797        -0.02434
C         24.57472        14.36384         0.49074
C         24.61701        17.14740         0.12482
C         23.38253        19.28628        -0.25017
C         24.61749        18.58098        -0.08930
C         25.79319         1.97776         0.61018
C         25.81361         3.51832         0.41340
C         26.97055         1.40843         1.24575
C         26.98722         4.23277         0.91559
C         25.76155         6.39274         0.58642
C         25.83861         7.83864         0.50201
C         26.83043         5.64089         1.08471
C         27.09644         8.54895         0.43896
C         25.81424        10.65665         0.46040
C         25.82348        12.13428         0.36489
C         27.05061         9.98251         0.39767
C         27.05574        12.84929         0.80700
C         25.78294        15.06309         0.64109
C         25.82922        16.46782         0.44988
C         27.04436        14.36001         0.97247
C         27.08574        17.16941         0.50174
C         25.83689        19.24284        -0.10721
C         27.06473        18.55828         0.12756
C         28.15287         2.12601         1.35275
C         28.18787         3.56433         1.19368
C         29.37727         1.39322         1.64858
C         29.50012         4.28816         1.20798
C         28.62098         6.60748         0.71649
C         28.37403         7.89813         0.20264
C         29.61350         5.59690         0.45960
C         29.51626         8.68860        -0.25450
C         28.28999        10.75229         0.33638
C         28.31629        12.14192         0.56493
C         29.51923        10.08828         0.02544
C         29.52653        12.87321         0.70622
C         28.33354        15.09117         1.01528
C         28.32444        16.51935         0.84997
C         29.51739        14.26385         1.11225
C         29.51156        17.36917         0.92176
C         28.26409        19.26440        -0.03266
C         29.48603        18.69723         0.37370
C         30.59317         1.95621         1.50856
C         30.73932         3.40059         1.21974
C         31.87640         3.78407         0.36787
C         30.70224         5.78549        -0.38070
C         30.70237         8.12898        -0.76409
C         31.81853         4.88124        -0.43339
C         31.87754         8.87697        -0.90596
C         30.74025        10.82676        -0.00734
C         30.76262        12.19075         0.48804
C         31.91183        10.19967        -0.47840
C         31.97777        12.81499         0.83039
C         30.75585        14.74348         1.60815
C         30.71587        17.03866         1.59684
C         31.96265        14.05385         1.46544
C         31.84789        17.84985         1.60387
C         30.66004        19.50553         0.33524
C         31.83198        19.08386         0.92830
O          6.44479        12.57714        -1.47945
O          7.99333        15.83522        -1.80058
O         10.24281        17.30779        -2.20483
O         18.62060         2.65962        -1.58201
O         18.50325        10.45348         1.33911
O          7.40836        14.45832         1.46620
O         14.36406        10.24328        -2.95711
O         11.26962        11.22711        -0.01965
O         27.81044         6.30268         1.83464
O         10.01611         8.01273        -3.02115
O         11.04444         2.57608         0.33745
O         30.74296         6.82281        -1.30955
O         13.04670         8.07334        -3.26545
O         17.53521        13.47179        -2.48922
O         20.75805        11.54917         1.78756
O         12.71893        12.87886        -3.02996
O         22.00419        16.62284        -1.97877
O         22.72635         8.25396        -1.23020
O         30.78317        15.89411         2.40040
O         26.91004        13.44083         2.13483
O         25.18566        12.53215        -0.91570
O          6.35283         3.77845        -1.88437
O         26.08362         2.61327        -0.68964
O         15.10010        12.27309        -0.10320
O         15.95657         8.31063         0.72350
O          7.29377         5.87479         0.89419
O          2.63308        10.34549        -0.42482
O         30.37165         4.23422         2.37939
O         18.77500         5.89166         1.51121
O          8.80403         5.76519        -2.51965
O         23.30660        12.23884         2.23808
H         22.40865        11.95642         2.54330
O         13.60515        14.69409         0.66827
H         14.01653        13.80573         0.78740
O         13.74781         5.61607        -3.14131
H         13.28689         6.22653        -3.76452
O         18.83653        13.29379         1.42243
H         18.79613        12.44550         1.92858
O         19.75208        -0.02079        -0.48602
H         19.82179         0.18665        -1.44123
O         10.83791        14.96755        -3.00877
H         10.24627        15.71001        -3.27852
O          9.33986        10.50212        -2.98356
H          9.50390         9.75231        -3.60335
O         19.67638        17.37754        -2.67286
H         20.60825        17.30946        -2.99376
O          8.83920        20.46089         1.00917
H          9.04657        20.04299         1.86969
O          8.96072        12.00048         1.09820
H          9.87895        11.64455         1.17580
H          0.62698         1.38825         1.73167
H          0.58391         3.84694         1.79404
H          2.65334         0.16617         0.94857
H          0.55483         5.75456         1.74165
H          0.56679         8.19017         1.73633
H          0.73775        10.02949         2.29010
H          0.80433        12.42316         2.54424
H          0.69677        14.34751         2.48527
H          0.83473        16.76055         2.89551
H          2.06448        18.88593         2.82351
H          4.96921         0.16958         0.22347
H          4.08826        20.19336         2.22329
H          7.32014         0.17492        -0.54110
H          6.40068        20.26976         1.29493
H          9.56233         0.11784        -1.41542
H          8.32549        19.94914        -0.90976
H         12.43007         0.20046        -1.58639
H         11.15548        20.30493         0.13207
H         14.68394         0.22746        -0.73105
H         13.56041        20.31152        -0.18046
H         17.03367         0.22085        -0.04118
H         16.03474        20.31891        -0.37462
H         19.39744         0.95358         1.29134
H         18.46012        20.27559        -0.21269
H         22.05263         0.27744         0.42669
H         20.89515        20.33829        -0.21464
H         24.40344         0.27924         0.89525
H         23.39142        20.38558        -0.20846
H         26.93764         0.36245         1.58645
H         25.87110        20.32134        -0.31931
H         29.28555         0.31901         1.86713
H         28.24139        20.30101        -0.39813
H         31.50850         1.35426         1.61180
H         32.71041         3.07261         0.26889
H         32.63680         5.11295        -1.12855
H         32.76936         8.40372        -1.33625
H         32.84966        10.76369        -0.56232
H         32.93284        12.29078         0.69716
H         32.88555        14.49220         1.86584
H         32.73595        17.52646         2.16146
H         30.59669        20.49711        -0.13411
H         32.72787        19.71902         0.91777
