         257
 CSIRO Nanostructure Databank - Neutral Graphene Oxide Data Set
C        -10.70874         0.66129         1.67214
C         -9.50952         1.43408         1.28420
C         -8.43889         0.70256         0.50361
C         -7.50273         1.47618        -0.38625
C         -6.33804         0.68642        -0.92517
C         -5.03050         1.37332        -1.26267
C         -3.74828         0.59695        -1.37637
C         -2.41421         1.33581        -1.42592
C         -1.14384         0.59463        -1.13176
C          0.10616         1.37269        -0.75338
C          1.05821         0.76646         0.25895
C          2.18017         1.57081         0.84594
C          3.50203         0.84994         1.05057
C          4.68376         1.55136         1.67717
C          5.96431         0.77222         1.87685
C          7.29202         1.50552         2.19899
C          8.49621         0.71221         1.76218
C          9.88507         1.77368         0.36049
C         10.61075         0.90967        -0.58512
C         -9.47463         2.90316         1.29220
C         -8.33607         3.58312         0.86423
C         -7.41315         2.99081        -0.19310
C         -5.99968         3.54277        -0.19312
C         -4.89128         2.83147        -0.89126
C         -3.71894         3.59734        -1.46383
C         -2.41541         2.85569        -1.56139
C         -1.09156         3.62085        -1.46239
C          0.15090         2.85252        -1.01046
C          1.34507         3.64472        -0.48953
C          2.38420         2.99730         0.39823
C          3.44553         3.79042         1.14391
C          4.64066         3.07290         1.73810
C          5.95723         3.82204         1.85291
C          7.27067         3.04843         1.76137
C          8.37493         3.80345         0.85131
C          9.24405         2.90211        -0.02742
C         -8.09553         4.91935         1.24394
C         -6.97272         5.65253         0.76333
C         -6.21480         5.02551        -0.39460
C         -4.99690         5.80375        -0.89652
C         -3.76748         5.10985        -1.43143
C         -2.46828         5.88957        -1.51090
C         -1.14948         5.13523        -1.34863
C          0.01755         5.89354        -0.79029
C          1.31193         5.14484        -0.65585
C          2.51290         5.86047        -0.15603
C          3.55049         5.25546         0.76110
C          4.81724         6.04790         0.96225
C          5.96706         5.34530         1.64351
C          7.58350         6.00767        -0.24756
C          7.60837         4.68421        -0.18031
C         -6.69061         6.91020         1.24110
C         -5.42997         7.62538         0.86110
C         -4.93367         7.27682        -0.53528
C         -3.81473         8.13641        -1.05348
C         -2.51513         7.39089        -1.35031
C         -1.38450         7.97434        -0.44376
C         -0.05889         7.23018        -0.52355
C          1.14765         8.03125        -0.14195
C          2.45023         7.33930         0.01745
C          3.75631         7.98466        -0.34850
C          5.01109         7.32714         0.14330
C          6.30627         8.15006         0.22419
C          7.47760         7.31835        -0.34278
C         -5.41925         9.09757         1.17335
C         -4.57817         9.95319         0.58162
C         -3.76314         9.64205        -0.66053
C         -2.38030        10.22235        -0.61453
C         -1.25436         9.47901        -0.62696
C          0.04139        10.14421        -0.66224
C          1.19932         9.48609        -0.42800
C          2.53513        10.19228        -0.23806
C          3.67709         9.39314        -0.91812
C          5.03531        10.05136        -0.91670
C          6.17384         9.46348        -0.52612
C        -10.78485        -0.68519         1.58305
C         -9.67180        -1.52975         1.09777
C         -8.54373        -0.81035         0.38518
C         -7.62971        -1.58232        -0.53222
C         -6.36547        -0.84848        -0.90928
C         -5.06333        -1.54448        -0.62356
C         -3.76301        -0.81613        -0.82561
C         -2.48869        -1.62357        -0.83639
C         -1.16847        -0.90481        -0.90311
C          0.09905        -1.55058        -0.39655
C          1.21293        -0.74149         0.18115
C          2.23740        -1.36726         1.14448
C          3.55146        -0.63701         0.95450
C          4.82739        -1.42186         1.07739
C          6.04829        -0.73820         1.60250
C          7.35153        -1.50872         1.62405
C          8.54337        -0.63066         1.66863
C          9.99478        -1.46936         0.11850
C         10.65328        -0.44950        -0.69569
C         -9.78701        -3.00913         0.99294
C         -8.70330        -3.73022         0.54306
C         -7.72628        -3.12111        -0.44400
C         -6.36729        -3.82731        -0.47542
C         -5.07667        -3.05646        -0.47964
C         -3.82267        -3.69339         0.08458
C         -2.52875        -2.98054        -0.17475
C         -1.24992        -3.75865        -0.23923
C          0.05435        -3.04038        -0.20112
C          1.15794        -3.72379         0.55019
C          2.29951        -2.92792         1.10640
C          3.60203        -3.70636         1.28006
C          4.85338        -2.91604         0.99285
C          6.17427        -3.65725         0.87889
C          7.50312        -3.01851         1.28861
C          8.58427        -3.53817         0.33915
C          9.52191        -2.65830        -0.36241
C         -8.34841        -5.12403         0.98661
C         -7.65654        -6.03386        -0.00625
C         -6.40860        -5.20180         0.16817
C         -5.09968        -5.95459         0.16682
C         -3.81971        -5.19728         0.24634
C         -2.52364        -5.95599         0.11661
C         -1.24519        -5.21120         0.10382
C          0.05631        -5.91117        -0.18707
C          1.18964        -5.25129         0.52715
C          2.37560        -6.04800         0.99668
C          3.64816        -5.22893         1.21788
C          4.95886        -5.94282         0.92866
C          6.17294        -5.12231         0.60453
C          7.48271        -5.79957         0.36813
C          8.58055        -4.88261         0.05610
C         -7.62474        -7.38918        -0.05466
C         -6.39646        -8.07570        -0.56743
C         -5.09282        -7.30345        -0.50254
C         -3.78610        -8.03790        -0.74050
C         -2.45714        -7.28444        -0.62258
C         -1.25284        -8.13661        -0.14348
C          0.06067        -7.38096        -0.31613
C          1.07518        -8.27417         0.36929
C          2.41920        -7.62410         0.97509
C          3.71908        -8.18664         0.37865
C          5.00221        -7.40167         0.59411
C          6.29908        -8.05394         0.06885
C          7.49543        -7.11676         0.03715
C         -6.25352        -9.55368        -0.49429
C         -5.07268       -10.21533        -0.53979
C         -3.77825        -9.54370        -0.81578
C         -2.46138       -10.23393        -0.81638
C         -1.25918        -9.54615        -0.71000
C          0.01823       -10.11271        -0.96353
C          1.22924        -9.44837        -0.59600
C          2.43098        -9.75795        -1.19580
C          3.71157        -9.19040        -0.74436
C          4.89409        -9.22467        -1.64017
C          6.06850        -8.67437        -1.29629
O          7.84157        -3.49757         2.67405
O          3.74718         0.19481        -0.23539
O          6.51857        -1.38697         2.82552
O         -4.54650         0.90655        -2.54755
O         -5.07878         8.00438        -1.78484
O          4.87203        -2.09233        -0.22309
O         -8.58637        -3.62688        -1.44762
O          0.98764         1.29861         1.62313
O         -1.76943        -5.74152         1.35024
O         -3.13905        -2.97528         1.14811
O          2.41594         5.52161        -1.56110
O          5.21120        -6.95023         1.96759
O         -5.87607        -7.34993        -1.72677
O         -4.40957        -0.85499         0.49026
O          3.93894        -9.58597         0.67058
O         -7.20751         4.97178        -1.50097
O          1.29297        -1.20083        -1.18394
O         -3.21045         3.16347        -2.74433
O         -1.55601         0.84728        -2.49837
O          6.78841         5.98723         2.28941
O         -5.56745        -3.73328        -1.67897
O          1.19848        -3.34106         1.96111
O          9.81098        -1.20472         1.48299
O         -6.96129        -4.91977         1.54965
O          3.53502         3.54506         2.56689
O          1.74112         7.76663         1.21086
O         -1.16642        -8.33139         1.30963
O          5.00784         0.97594         2.97384
O         -7.88689         3.64283        -1.43685
O         -0.40993        -3.65843        -1.43256
O         -8.21021         1.03027         1.90070
O          0.26894        -8.73709         1.52643
O         -7.44636         1.13714        -1.77716
O         -1.90691         7.69573         0.84880
O          2.58993         3.09472        -1.02960
O         -8.35786        -1.31453         1.75042
O         -0.80548         4.45455        -2.60609
O          4.56021         7.11841        -1.22607
O         -2.31015         6.83951        -2.64164
O          9.74136         1.37182         1.70169
O         -7.32321        -1.27171        -1.91141
O         -4.94226         2.99750         0.60150
O          0.36783        -6.56944        -1.46062
O         -4.45778        -5.77585         1.44917
O          3.69995        -4.50473         2.48593
O          3.72324         6.11318         1.92851
O          6.86495         3.69025         2.98899
O         -3.84367        -8.70271        -2.04033
O          1.30048        -5.71839         1.90893
O         -4.79875         5.59850        -2.31954
O         -1.74473        -1.59315        -2.06240
O          0.67974         1.89575        -1.97609
O          6.06982        -4.18183        -0.50793
O          1.86866        -1.01501         2.48745
H          1.28556        -1.71885         2.85553
O          7.42927         1.47690         3.62220
H          6.55235         1.67475         4.02189
O          3.26384         9.25450        -2.29755
H          3.82002         8.55156        -2.70054
O          2.79080        10.33242         1.15963
H          2.48231         9.51175         1.61310
O         -2.13394        -6.86657        -1.96569
H         -2.53235        -7.51590        -2.59343
O          2.48344        -7.99429         2.34506
H          1.75642        -7.53606         2.82174
O          6.61452        -9.13601         0.97189
H          6.38252        -8.83926         1.87832
O          6.58094         8.53651         1.57218
H          6.75399         7.72414         2.11152
O         -4.40792         6.99458         1.70598
H         -3.50477         7.37277         1.46730
O          9.18722         4.57461         1.70254
H          8.59805         5.05682         2.32811
O          7.87593        -4.94276         2.70686
H          7.24617        -5.15501         3.43929
O         -4.41260        10.40191        -1.71341
H         -5.14465         9.84423        -2.06605
H         11.14808        -0.84118        -1.60053
H         11.08149         1.46522        -1.41377
H          9.36458         3.22575        -1.07253
H          7.16003         4.12344        -1.02430
H          8.28590         7.88080        -0.84270
H          7.11657        10.02529        -0.62539
H          5.08480        11.04760        -1.38399
H          2.48781        11.21519        -0.68814
H          0.04515        11.23200        -0.83299
H         -2.31952        11.31906        -0.68265
H         -4.56407        11.00562         0.90408
H         -6.03342         9.42875         2.02550
H         -7.31478         7.32959         2.04654
H         -8.74952         5.38513         1.99702
H        -10.23797         3.44580         1.87229
H        -11.58516         1.23368         2.01064
H        -11.72381        -1.19110         1.85268
H        -10.55330        -3.50185         1.61272
H         -9.05687        -5.56592         1.72261
H         -8.50625        -7.99364         0.20759
H         -7.16866       -10.12786        -0.28145
H         -5.06060       -11.30589        -0.39408
H         -2.44689       -11.30755        -1.06270
H          0.08429       -11.07007        -1.50291
H          2.45702       -10.52429        -1.98629
H          4.76594        -9.69979        -2.62449
H          6.91865        -8.72439        -1.99256
H          8.44502        -7.58331        -0.26735
H          9.40195        -5.29101        -0.55325
H          9.79390        -2.95537        -1.38774
