         317
 CSIRO Nanostructure Databank - Neutral Graphene Oxide Data Set
C         30.41440        31.69698        -0.03610
C         30.61565        32.82820        -0.49662
C         30.61941        36.00430        -0.83986
C         30.56919        37.24126        -0.79255
C         30.41735        40.58661        -0.20275
C         30.44531        41.77366         0.26017
C         32.67175        28.88565         0.40424
C         31.57196        29.43969         0.46992
C         32.72014        31.60314         0.99597
C         31.33030        30.85507         0.72340
C         32.77504        33.09066         0.70784
C         31.83030        33.59351        -0.79532
C         32.92121        35.91649        -0.17990
C         31.78641        35.11033        -0.78964
C         32.84314        37.41406         0.05606
C         31.50013        38.12536        -0.06639
C         32.77274        40.31167         0.63924
C         31.43412        39.59248         0.20452
C         32.84607        41.84671         0.35714
C         31.48559        42.59389         0.67936
C         32.85050        44.51842         1.30957
C         31.77876        43.90771         1.05914
C         35.51838        27.17901         0.52365
C         35.19867        28.60909         0.13455
C         34.02241        29.30156         0.77896
C         35.35173        31.62431         1.17672
C         34.01434        30.82152         1.10605
C         35.32212        33.08564         0.74857
C         34.13593        33.73110         0.56864
C         35.32765        35.95245         0.05532
C         34.06641        35.25133         0.58789
C         35.30428        37.43599         0.59132
C         33.98593        38.12212         0.27356
C         35.29004        40.38578         0.42456
C         34.02193        39.63152         0.01430
C         35.34778        41.73150         0.66973
C         34.08081        42.47577         1.08448
C         35.43647        44.53112         1.61782
C         34.21645        44.01570         0.85711
C         35.72781        46.01530         1.27930
C         37.71505        27.12783        -0.46901
C         36.51040        26.55045         0.13697
C         37.84398        28.59586        -0.07817
C         36.57220        29.31360         0.49605
C         37.88269        31.53488         0.14670
C         36.53147        30.78691         0.02152
C         37.73170        33.04337        -0.26377
C         36.67877        33.81039         0.82452
C         37.69965        36.09857         0.56471
C         36.60784        35.27906         0.47857
C         37.70437        37.41183        -0.20007
C         36.48823        38.21312         0.10769
C         37.62555        40.40451        -0.45052
C         36.61748        39.65100         0.45728
C         37.84503        41.74792         0.23608
C         36.64648        42.43495         0.73485
C         38.02079        44.41887         1.28823
C         36.72835        43.76391         1.15910
C         38.15399        45.78348         1.56178
C         36.87578        46.40972         1.57869
C         40.14590        24.49591        -0.26282
C         39.12659        24.97405        -0.83798
C         40.26128        27.13232        -1.12898
C         38.91328        26.41457        -0.99531
C         40.24459        28.68066        -1.25947
C         39.05885        29.35145        -0.53915
C         40.36419        31.51947        -0.43647
C         38.99900        30.87914        -0.73019
C         40.37484        32.98467         0.05411
C         39.09145        33.71461        -0.35693
C         40.35304        35.87432        -0.82608
C         39.23796        34.88760        -1.09059
C         40.27183        37.36642        -0.40549
C         39.01543        38.20385        -0.02017
C         40.28295        40.34448        -0.89770
C         38.93124        39.53582        -0.85234
C         40.29151        41.68477        -0.17404
C         39.09173        42.32601         0.32425
C         40.55251        44.40053         0.88563
C         39.25217        43.63131         1.03108
C         40.66081        45.85417         1.18733
C         39.45347        46.37755         2.03103
C         40.63181        48.53912         1.77541
C         39.62130        47.86234         1.95559
C         42.62594        24.66522         0.51375
C         41.46021        24.96165        -0.20598
C         42.90983        27.06827        -0.69618
C         41.53786        26.37701        -0.80050
C         42.83023        28.58682        -1.03004
C         41.52783        29.29673        -0.61349
C         42.89017        31.51739        -0.28290
C         41.53268        30.83654        -0.58321
C         42.87883        32.99045        -0.66709
C         41.58359        33.70488        -0.54328
C         42.81383        35.85229        -0.37199
C         41.61960        35.17484        -0.54712
C         42.79868        37.22943        -0.11024
C         41.54260        38.06174         0.13170
C         42.75598        40.40599        -0.19363
C         41.63278        39.46199        -0.63705
C         42.72158        41.76356        -0.59257
C         41.44242        42.42001        -0.38369
C         42.68089        44.65718        -0.57818
C         41.49191        43.87352        -0.14047
C         43.00765        45.91228         0.22348
C         41.78287        46.56312         0.89456
C         42.92811        48.72682         0.57284
C         42.00799        48.01955         1.51852
C         43.73101        25.25284         0.64945
C         45.13487        27.36700         0.23277
C         43.79526        26.77298         0.56773
C         45.18410        28.88011        -0.04074
C         44.09273        29.37956        -0.98401
C         45.44396        31.59542        -1.14899
C         44.00188        30.91311        -1.16306
C         45.37617        33.10081        -0.85266
C         44.19168        33.72348        -0.64563
C         45.22942        36.02105        -0.98959
C         44.17841        35.17471        -0.21451
C         45.24589        37.43111        -0.39064
C         44.07113        37.78821         0.21919
C         45.22028        40.55590        -0.00809
C         43.98840        39.97278         0.29330
C         45.16918        41.84296        -0.57703
C         43.92852        42.48961        -0.76876
C         45.15601        44.65222        -1.55821
C         43.79765        43.88403        -1.34166
C         45.01215        46.19928        -1.42077
C         43.86995        46.84365        -0.70211
C         43.77370        48.18925        -0.14568
C         47.61606        27.31041         0.31619
C         46.41764        26.90727         0.37704
C         47.88057        28.80379         0.04273
C         46.54220        29.52233        -0.26363
C         47.86670        31.64898        -0.15044
C         46.55023        30.88985        -0.35070
C         47.71718        33.18403         0.03445
C         46.73274        33.83253        -0.96395
C         47.56899        36.14452         0.09858
C         46.67655        35.43863        -0.92383
C         47.66397        37.50764         0.03325
C         46.48961        38.32537        -0.48983
C         47.77581        40.47369         0.03030
C         46.45991        39.71127         0.31895
C         47.68847        41.79525        -0.73043
C         46.43502        42.60519        -0.59004
C         47.69206        44.75800        -1.25126
C         46.40353        44.06736        -0.85515
C         47.33902        46.07061        -1.50588
C         46.33912        46.86155        -1.49346
C         49.63094        28.98953         1.94927
C         48.41022        29.49979         1.29154
C         49.69335        31.67718         1.58449
C         48.70449        30.99152         0.96785
C         49.50607        33.17448         1.79900
C         48.58120        33.88671         0.81087
C         49.75550        36.13665         1.40481
C         48.44716        35.39580         1.07163
C         49.95835        37.52482         1.11319
C         49.05076        38.14454         0.05520
C         50.25973        40.34987        -0.75288
C         49.06010        39.69486        -0.02837
C         50.21810        41.90597        -0.76212
C         48.89985        42.46722        -1.30756
C         50.20504        44.54889        -1.63208
C         48.82263        43.97428        -1.86408
C         50.44571        29.59628         2.66333
C         51.46801        31.92157         3.28839
C         50.95202        30.95482         2.25686
C         51.51279        33.13799         3.09253
C         50.84230        33.92273         1.99829
C         51.69683        36.22466         2.66885
C         50.68168        35.39641         2.18403
C         51.91020        37.45211         2.48158
C         51.15554        38.17816         1.53215
C         52.69095        40.55495        -0.66607
C         51.60119        39.95124        -0.08339
C         52.51358        41.58325        -1.45910
C         51.52011        42.50070        -1.54337
C         51.20749        43.81390        -1.89573
O         34.03673        29.76989         2.12042
O         40.41294        36.98837        -1.80392
O         31.69553        31.28566         2.02539
O         43.65043        28.76928        -2.22273
O         37.88056        26.90193        -1.89266
O         48.09564        41.59393        -2.12629
O         48.68495        40.42344         1.17463
O         46.38360        43.60778         0.51667
O         41.05909        26.49972        -2.18347
O         31.01934        38.63417         1.21821
O         40.30836        43.58072         2.05921
O         43.32199        43.75908        -2.76600
O         51.67688        39.37948         1.15117
O         41.44902        44.74696        -1.34645
O         32.84372        35.62991        -1.62353
O         43.84317        46.68400        -2.12630
O         45.96580        31.39082        -2.45975
O         35.90740        31.51908         2.39467
O         38.95865        28.85418         0.82348
O         44.01958        38.85207         1.11922
O         37.23877        33.71800         2.14015
H         36.75559        32.97998         2.61568
O         43.88847        45.50211         1.28579
H         43.87712        46.19158         1.98847
O         41.45529        28.94184         0.78838
H         42.16126        29.43901         1.26521
O         47.34449        29.49609         2.27168
H         47.74214        29.63942         3.15697
O         50.37776        42.37834         0.56065
H         50.39820        43.35939         0.55305
O         44.78945        36.03404        -2.34965
H         45.58524        36.18806        -2.90985
O         48.54798        43.92045        -3.25545
H         47.57532        43.96124        -3.40166
O         35.99094        30.82835        -1.24867
H         36.19032        31.71485        -1.65634
O         38.70267        39.14784        -2.22328
H         39.39636        38.48560        -2.46125
O         42.04888        33.21584        -1.85384
O         40.43215        40.81035        -2.26793
H         39.60619        40.56866        -2.75544
O         37.52568        37.10874        -1.62517
H         37.29147        37.95673        -2.07527
O         43.13116        31.39176         1.12704
H         42.41525        31.89597         1.58584
O         35.25346        44.41699         2.99368
H         36.07062        44.69111         3.45706
O         38.35351        31.41925         1.49576
H         37.55181        31.40398         2.09869
O         32.48318        33.12705        -1.92418
H         32.94061        33.89054        -2.35052
O         35.49592        37.49982         2.04450
H         34.89187        36.83307         2.46232
O         49.60270        37.67473        -1.22948
H         48.97942        37.01341        -1.62175
O         42.08862        39.04060        -1.93030
H         41.88728        39.77783        -2.55980
O         48.64281        31.47152        -1.35353
H         47.99537        31.37109        -2.09308
O         32.87739        40.08742         2.05223
H         32.21862        39.38867         2.29704
O         45.57176        44.45976        -2.93367
H         44.87629        44.82835        -3.52284
O         33.85921        35.57240         1.98695
H         33.13576        34.97587         2.31425
O         43.24951        27.32729         1.73951
H         43.91705        27.30921         2.45506
O         47.66823        35.50825         2.30709
H         48.08703        34.90481         2.97242
O         41.47034        38.22707         1.54828
H         42.33950        38.58523         1.85173
O         40.59975        32.93460         1.48548
H         39.82676        32.43148         1.85776
O         39.64638        45.95146         3.37156
H         40.51113        46.28562         3.68953
O         47.31250        35.93646        -2.15305
H         47.55035        35.12325        -2.68448
O         34.03409        39.69739        -1.43681
H         33.72306        40.60119        -1.70303
O         48.80167        28.93554        -0.99666
H         48.37774        28.71077        -1.84907
O         37.05058        39.75179         1.84309
H         36.55123        39.06110         2.34349
O         48.83293        33.24711         3.09663
H         48.02498        32.69275         3.05641
O         42.68180        47.79981         2.74401
H         42.90725        48.66558         3.14514
O         46.42491        39.38226         1.70825
H         47.27621        39.67793         2.11111
O         43.70043        26.43236        -1.71396
H         43.22859        26.51917        -2.57111
O         43.51603        31.14897        -2.48090
H         44.34146        31.18884        -3.04242
O         42.30688        42.75606        -2.89948
H         41.47095        43.27277        -2.75862
O         44.74482        29.38857         1.25965
H         45.55559        29.50062         1.81960
O         36.67336        29.20856         1.90072
H         37.61506        29.33376         2.15764
O         34.38096        44.30709        -0.52265
H         34.68905        45.23970        -0.60017
O         35.20345        35.95442        -1.37138
H         36.10273        36.07474        -1.75957
O         33.00848        42.03991        -1.05414
H         33.32383        42.96531        -1.21030
O         50.29005        40.00168        -2.13064
H         50.15245        39.02695        -2.21317
O         33.95294        42.36136         2.49810
H         33.75877        41.42466         2.73748
O         40.19466        28.99998        -2.65114
H         40.76029        28.35398        -3.13271
O         36.93988        40.69421        -1.68685
H         36.10382        40.17506        -1.74168
O         39.12692        38.58493         1.34000
H         39.17045        37.77661         1.89656
O         51.61603        33.73230         0.81668
H         52.45982        34.22243         0.90227
O         32.02379        33.77188         1.71487
H         31.52322        33.06908         2.20714
O         38.66691        31.14593        -2.10533
H         39.28876        30.62779        -2.67367
O         38.52100        35.09134        -2.21123
H         38.82893        35.92807        -2.62737
O         37.03160        33.16563        -1.51404
H         37.67911        32.97800        -2.23134
O         34.92410        28.59588        -1.24459
H         35.59681        28.07000        -1.72535
O         38.75644        35.84379         1.39423
H         38.52983        35.02237         1.90647
O         44.52014        35.14194         1.18959
H         44.68343        36.05537         1.51173
O         51.90996        30.81100         1.25252
H         52.68048        30.31958         1.60088
O         47.25260        33.53878        -2.27268
H         46.76316        32.72135        -2.63162
O         46.67478        38.68134        -1.86858
H         46.84045        37.84960        -2.37105
