         324
 CSIRO Nanostructure Databank - Neutral Graphene Oxide Data Set
C          1.07449         2.16470         0.40095
C          1.01632         3.52492         0.60719
C          2.29299         1.45939         0.29165
C          2.24142         4.32705         0.72316
C          1.08941         6.46471        -0.25292
C          1.16407         7.74878        -0.66718
C          2.28755         5.78479         0.28504
C          2.40435         8.51378        -0.61927
C          1.16723        10.67862        -0.71564
C          1.11694        12.03310        -0.74977
C          2.40325         9.92840        -0.80935
C          2.29349        12.83458        -1.11760
C          1.15596        15.02799        -0.52783
C          1.13886        16.37062        -0.29887
C          2.35947        14.28486        -0.82626
C          2.36034        17.17413        -0.40878
C          2.46144        18.52017         0.20044
C          3.54484         2.11352         0.39650
C          3.54535         3.56694         0.75118
C          4.74550         1.42401         0.28988
C          4.82398         4.33633         0.70051
C          3.62744         6.34150        -0.21531
C          3.62143         7.85085        -0.37818
C          4.81372         5.87369         0.65912
C          4.85373         8.54747        -0.40722
C          3.63599        10.61415        -0.91838
C          3.63155        12.05469        -1.22131
C          4.87518         9.94158        -0.72419
C          4.88925        12.80733        -1.06955
C          3.60229        14.91696        -0.78428
C          3.64686        16.39356        -0.62107
C          4.84181        14.18936        -0.90735
C          4.86662        17.00999        -0.02274
C          3.65300        19.14511         0.38732
C          4.92461        18.46645         0.21485
C          6.03266         2.11827         0.13152
C          6.04249         3.62217         0.20138
C          7.31733         1.41150         0.25817
C          7.31484         4.33579         0.41722
C          6.11104         6.47448         0.13987
C          6.09480         7.79696        -0.24205
C          7.35172         5.72021         0.26813
C          7.35395         8.46034        -0.65288
C          6.11966        10.67629        -0.89432
C          6.12673        12.05006        -1.09002
C          7.43445         9.97703        -0.57445
C          7.41542        12.78003        -1.31985
C          6.11268        14.96415        -0.89108
C          6.15287        16.25686        -0.15239
C          7.41645        14.26365        -1.08349
C          7.42089        16.99175        -0.07249
C          6.14856        19.07615         0.37359
C          7.41068        18.37859         0.23421
C          8.51145         2.07876         0.45608
C          8.51380         3.54765         0.68245
C          9.77142         1.40267         0.46441
C          9.84807         4.29022         0.67069
C          8.62717         6.37856         0.11360
C          8.65145         7.73448        -0.45980
C          9.83440         5.70983         0.28941
C          9.92182         8.49895        -0.42516
C          8.69166        10.49944        -1.32444
C          8.72500        12.02833        -1.33234
C          9.94763         9.86491        -0.73226
C          9.97656        12.73403        -0.97792
C          8.65950        14.93081        -0.65007
C          8.63829        16.26709        -0.26054
C          9.93201        14.21203        -0.92409
C          9.88076        16.96902         0.15165
C          8.63326        19.09719         0.32644
C          9.88619        18.44756         0.25801
C         11.01036         2.06719         0.44113
C         11.07506         3.51712         0.42930
C         12.22647         1.34043         0.30879
C         12.26800         4.19391         0.24209
C         11.09338         6.37603         0.09045
C         11.12485         7.78679        -0.14539
C         12.31192         5.64713         0.16223
C         12.36844         8.47669        -0.15940
C         11.17030        10.58811        -0.63820
C         11.17326        12.04318        -0.75218
C         12.37732         9.89102        -0.34439
C         12.42383        12.74372        -0.54307
C         11.21429        14.92581        -0.64244
C         11.18789        16.27024        -0.00098
C         12.45818        14.15954        -0.46435
C         12.43997        17.04128        -0.02342
C         11.11600        19.11516         0.32166
C         12.38566        18.45136         0.19774
C         13.46980         1.98749         0.23589
C         13.51210         3.45034         0.24948
C         14.67563         1.28476        -0.00311
C         14.70929         4.11682         0.31988
C         13.54779         6.33260         0.09837
C         13.59194         7.74307         0.00034
C         14.83710         5.56374        -0.05651
C         14.85523         8.42966         0.04503
C         13.63244        10.58704        -0.24667
C         13.64606        12.00834        -0.34242
C         14.85538         9.87314        -0.06009
C         14.87104        12.70709        -0.18953
C         13.64234        14.90337        -0.31556
C         13.65273        16.33897        -0.17583
C         14.90362        14.16628        -0.40383
C         14.89038        17.06232        -0.03230
C         13.60505        19.15866         0.26308
C         14.85240        18.48975         0.18054
C         15.92963         1.93779         0.05980
C         15.93029         3.33415         0.58090
C         17.12484         1.35319        -0.35318
C         17.20820         4.04405         0.89641
C         16.06707         6.27296         0.47644
C         16.05865         7.71206         0.33187
C         17.21577         5.56591         0.84555
C         17.28704         8.42850         0.48601
C         16.06387        10.60725         0.08386
C         16.06945        12.01229         0.06287
C         17.37632         9.87471         0.05176
C         17.25844        12.78144         0.60929
C         16.19780        14.94050        -0.23888
C         16.12934        16.39061         0.00464
C         17.39388        14.22021         0.20199
C         17.33610        17.07822         0.27572
C         16.07329        19.18986         0.33132
C         17.31104        18.51534         0.38420
C         18.38450         2.01720        -0.16026
C         18.42777         3.22900         0.59629
C         19.60902         1.45399        -0.57838
C         19.68427         3.63994         1.05993
C         18.43062         6.32489         1.06147
C         18.44309         7.73903         0.81106
C         19.65941         5.76232         1.45641
C         19.70016         8.45646         1.12627
C         18.53063        10.66857         0.62747
C         18.56701        12.03928         0.58924
C         19.74165         9.95560         1.05448
C         19.79746        12.78433         0.78010
C         18.55968        14.91450         0.48531
C         18.56459        16.36447         0.43539
C         19.79592        14.19487         0.75609
C         19.77032        17.06599         0.65860
C         18.53981        19.20569         0.53153
C         19.76172        18.51827         0.64141
C         20.86238         2.08808        -0.32827
C         20.90101         3.27225         0.49224
C         22.08023         1.53504        -0.76770
C         22.13489         4.17260         0.41529
C         20.95536         6.33755         1.22539
C         20.96978         7.71719         1.11038
C         22.19502         5.54258         1.13575
C         22.20783         8.45160         1.37004
C         21.02363        10.66774         0.93728
C         21.04774        12.05633         0.86298
C         22.25913         9.87800         0.94090
C         22.30766        12.77361         0.92644
C         21.01739        14.93670         0.90603
C         20.98175        16.34949         0.90509
C         22.28657        14.22557         0.97636
C         22.20607        17.12964         1.15550
C         20.98570        19.23377         0.68733
C         22.21888        18.57361         0.83435
C         23.33997         1.98855        -0.18655
C         23.38710         3.31532         0.55204
C         24.60029         1.42341        -0.67070
C         24.72150         4.01081         0.70864
C         23.41203         6.19366         1.23339
C         23.47689         7.65276         1.54246
C         24.71963         5.48826         1.04709
C         24.81123         8.38703         1.57511
C         23.56808        10.59640         0.95873
C         23.52573        12.07435         0.98643
C         24.80257         9.90777         1.47545
C         24.77489        12.75759         0.94619
C         23.49118        14.92181         1.04498
C         23.54550        16.38654         1.18432
C         24.76411        14.21013         1.03461
C         24.74532        17.11355         0.71828
C         23.44508        19.23564         0.71004
C         24.67999        18.52978         0.56714
C         25.80188         2.10215        -0.61065
C         25.90381         3.42961         0.00697
C         26.97421         1.50297        -1.17516
C         27.07277         4.13784        -0.06405
C         25.96128         6.25358         0.80122
C         26.10095         7.62040         1.34023
C         27.19269         5.48917         0.54959
C         27.40726         8.37113         1.17275
C         26.09156        10.68506         1.27251
C         26.00723        12.09506         0.79705
C         27.39329         9.94676         1.14720
C         27.12871        12.77616         0.22083
C         26.03782        14.96505         0.55000
C         25.89847        16.41850         0.28695
C         27.08088        14.15301        -0.08088
C         26.98531        17.11782        -0.25841
C         25.83028        19.22256         0.10984
C         26.95288        18.52781        -0.32609
C         28.15575         2.21755        -1.34098
C         28.17777         3.62983        -0.91224
C         29.32120         1.65260        -1.91891
C         29.49653         4.35285        -0.97925
C         28.51988         6.23435         0.47037
C         28.56033         7.71156         0.56312
C         29.72415         5.54408        -0.11338
C         29.72849         8.44097         0.27120
C         28.49550        10.59642         0.45444
C         28.31541        11.95098        -0.12012
C         29.68970         9.89545         0.21736
C         29.57100        12.69186        -0.56599
C         28.16186        14.87775        -0.79933
C         28.11064        16.41069        -0.97852
C         29.51575        14.17158        -0.83524
C         29.44234        17.11123        -0.73566
C         28.11601        19.25582        -0.95382
C         29.42044        18.52000        -0.74408
C         30.52770         2.35293        -2.01599
C         30.67750         3.65453        -1.52132
C         31.88255         4.41525        -1.67031
C         31.00045         6.30781        -0.32016
C         30.96326         7.77994        -0.10151
C         32.00226         5.70263        -1.22599
C         32.10737         8.52420        -0.33198
C         30.89446        10.62073        -0.12894
C         30.86294        12.07122        -0.23834
C         32.08458         9.93241        -0.32191
C         31.96172        12.88040        -0.06104
C         30.74344        14.96536        -0.59470
C         30.68020        16.42981        -0.63344
C         31.88319        14.29995        -0.19809
C         31.86491        17.19336        -0.53125
C         30.60778        19.25120        -0.62094
C         31.82909        18.58347        -0.51753
O         25.56004         7.84884         2.69444
O         27.76563         9.19139         2.31916
O          9.18541         3.95174         1.93052
O         10.51837        16.29556         1.31245
O          8.10120        12.50668        -2.57653
O         16.39263         3.48265         1.98759
O         25.78923        14.69369         1.96069
O          3.04587        17.12050        -1.72126
O         22.90470        16.85144         2.41448
O         28.75228        11.95740        -1.52123
O         28.46548         4.59903        -2.00600
O         24.95064         4.42113         2.08103
O          2.86456        12.44354        -2.40333
O         19.56777         9.27194         2.37396
O          5.38180        16.21169         1.10364
O         22.71072         8.11320         2.70428
O          6.76549        15.01584        -2.19355
O         19.66954         4.55387         2.12218
O         10.70339        14.88991        -2.01287
O         28.12207         5.56933         1.71533
O         30.78849         5.43699         0.86560
O          2.18797         5.42722         1.69703
O         25.43866        10.56515         2.58721
O         15.72600        14.53959        -1.58550
O         28.72286        14.35887        -2.05102
O         23.25189         2.12933         1.32997
O          4.34276         3.81001         1.97373
O         23.07537        10.01829        -0.30368
O          7.97457         7.79315        -1.80203
O          5.95107         3.00458        -1.11568
O         27.79778        16.65887        -2.38401
H         28.26102        15.95471        -2.89775
O          3.84865         5.75966        -1.52775
H          3.35017         6.27878        -2.19264
O         16.92641        12.88278         2.05301
H         17.74112        13.15284         2.52943
O          7.69076        10.28947         0.83001
H          6.93886         9.95646         1.36499
O         22.17292         4.59411        -0.99791
H         21.31883         5.02288        -1.21834
O          4.66827         6.38323         1.99084
H          4.12650         5.72498         2.49162
O          8.65730        10.12622        -2.70718
H          8.55604         9.14468        -2.76384
O         17.72520         9.76951        -1.38488
H         17.54362        10.63826        -1.80416
O         28.19435        20.60217        -0.48260
H         28.31976        20.58307         0.48808
O         15.08371         5.51858        -1.52299
H         14.24664         5.24172        -1.95408
H          0.13523         1.59918         0.31940
H          0.04558         4.02562         0.72175
H          2.27325         0.37718         0.10159
H          0.12486         5.93708        -0.25526
H          0.25769         8.24034        -1.04635
H          0.24746        10.13063        -0.46974
H          0.17074        12.53788        -0.51063
H          0.20666        14.47842        -0.46484
H          0.20565        16.86520         0.00909
H          1.52403        19.04572         0.43774
H          4.72770         0.32971         0.17015
H          3.67246        20.18080         0.75883
H          7.31875         0.31421         0.17056
H          6.18464        20.15590         0.58521
H          9.76706         0.30439         0.39143
H          8.60014        20.18745         0.47116
H         12.18769         0.24170         0.26562
H         11.11785        20.20882         0.44625
H         14.63621         0.21220        -0.24563
H         13.59257        20.24665         0.42663
H         17.11825         0.34247        -0.78725
H         16.05341        20.28401         0.44530
H         19.60144         0.49740        -1.12058
H         18.53890        20.30544         0.55724
H         22.08866         0.67681        -1.45462
H         20.97100        20.32603         0.55702
H         24.56043         0.45915        -1.19933
H         23.44555        20.32157         0.53216
H         26.91380         0.46141        -1.52356
H         25.80278        20.31794         0.01526
H         29.27219         0.61607        -2.28232
H         27.92985        19.31350        -2.06091
H         31.39836         1.85512        -2.46752
H         32.70587         3.96439        -2.24477
H         32.90806         6.27126        -1.47821
H         33.05681         8.01979        -0.55513
H         33.01044        10.48156        -0.53989
H         32.92742        12.44469         0.22951
H         32.79168        14.86770         0.04192
H         32.84038        16.69259        -0.47916
H         30.56593        20.34936        -0.62859
H         32.76494        19.15367        -0.43965
