         204
 CSIRO Nanostructure Databank - Neutral Graphene Oxide Data Set
C        -10.90152         0.59592        -1.01390
C         -9.79145         1.39766        -0.52335
C         -8.68050         0.72591         0.11798
C         -7.48311         1.43565         0.39304
C         -6.25562         0.71079         0.68759
C         -5.01077         1.46141         0.79524
C         -3.74944         0.73079         0.84571
C         -2.51064         1.41868         0.79079
C         -1.31144         0.71506         0.59084
C         -0.05130         1.46918         0.44622
C          1.23355         0.71195         0.41465
C          2.49134         1.38914         0.82496
C          3.74874         0.66987         0.56819
C          4.96527         1.41090         0.53819
C          6.20149         0.69535         0.38513
C          7.46049         1.42573         0.29566
C          8.68656         0.72640         0.19170
C          9.89020         1.43357        -0.06561
C         11.12147         0.68230        -0.25997
C         -9.80563         2.76855        -0.61126
C         -8.76154         3.57763         0.09891
C         -7.45412         2.84345         0.24127
C         -6.24688         3.58135         0.40583
C         -5.03124         2.85597         0.71394
C         -3.79363         3.63442         0.93626
C         -2.48226         2.88207         0.97770
C         -1.24048         3.63552         0.70734
C         -0.01656         2.92696         0.69664
C          1.20285         3.61329         0.69618
C          2.47387         2.88575         0.90015
C          3.74812         3.59910         0.70486
C          4.94121         2.84004         0.57560
C          6.18958         3.56389         0.27910
C          7.46145         2.83300         0.23612
C          8.67777         3.57507         0.04029
C          9.87935         2.82942        -0.16782
C         -8.60393         4.97570        -0.40718
C         -7.42022         5.67606        -0.21752
C         -6.23347         4.98808         0.23828
C         -5.03818         5.82003         0.64355
C         -3.74153         5.06562         0.58894
C         -2.52852         5.73154         0.40344
C         -1.25641         5.02096         0.51081
C         -0.01004         5.72078         0.38051
C          1.22324         5.02276         0.56079
C          2.47686         5.72304         0.52294
C          3.71061         5.00603         0.63520
C          4.97552         5.79483         0.86120
C          6.21933         5.05333         0.41867
C          7.53987         5.77243         0.65073
C          8.69678         4.97899         0.10834
C         -7.36590         7.08371        -0.50552
C         -6.17081         7.80830        -0.43853
C         -4.96758         7.16578        -0.02576
C         -3.72305         7.81473        -0.18592
C         -2.51275         7.11230         0.02596
C         -1.23534         7.72489        -0.48345
C          0.01807         7.10202         0.06734
C          1.24323         7.79635        -0.00153
C          2.47671         7.12316         0.25554
C          3.72943         7.82217         0.05341
C          4.95246         7.16878         0.23639
C          6.20309         7.80079        -0.10002
C          7.42881         7.15238         0.04658
C         -6.11160         9.19440        -0.83924
C         -4.92310         9.86924        -0.88277
C         -3.68045         9.20890        -0.59843
C         -2.46341         9.89686        -0.64822
C         -1.22261         9.23270        -0.47434
C          0.00468         9.89073        -0.51587
C          1.24577         9.20329        -0.36087
C          2.47671         9.85730        -0.55573
C          3.70404         9.18691        -0.40583
C          4.95338         9.82717        -0.70183
C          6.14298         9.16043        -0.58656
C        -10.95601        -0.75222        -0.84233
C         -9.89257        -1.48012        -0.18569
C         -8.79857        -0.69355         0.41756
C         -7.49375        -1.46807         0.82254
C         -6.25622        -0.67217         0.81604
C         -4.99675        -1.40078         1.04459
C         -3.72358        -0.68883         0.82911
C         -2.52373        -1.41284         0.63529
C         -1.28822        -0.69985         0.48664
C         -0.02810        -1.39396         0.33676
C          1.20893        -0.75647         0.43115
C          2.45875        -1.44344         0.31934
C          3.70652        -0.72270         0.34157
C          4.94314        -1.43644         0.16095
C          6.19069        -0.71517         0.23809
C          7.41832        -1.44798         0.14055
C          8.71853        -0.75234         0.46728
C          9.92903        -1.45425        -0.10409
C         11.13289        -0.67788        -0.29895
C         -9.85890        -2.85369        -0.15729
C         -8.67245        -3.60317         0.19242
C         -7.45691        -2.91702         0.55114
C         -6.24701        -3.63295         0.60260
C         -5.00644        -2.91403         0.99192
C         -3.71757        -3.58300         0.74426
C         -2.55274        -2.86945         0.59056
C         -1.32749        -3.59449         0.17215
C         -0.02776        -2.82132         0.01284
C          1.23438        -3.56929         0.03861
C          2.46112        -2.85725         0.12654
C          3.68914        -3.55547        -0.08726
C          4.93311        -2.82780        -0.06254
C          6.17463        -3.54797        -0.20633
C          7.41675        -2.82914        -0.07842
C          8.66002        -3.56008        -0.23855
C          9.89550        -2.80813        -0.30935
C         -8.65247        -4.98532         0.01103
C         -7.43389        -5.73638         0.05100
C         -6.19789        -5.02388         0.31739
C         -4.97347        -5.76896         0.39962
C         -3.73486        -5.06228         0.77787
C         -2.42145        -5.80888         0.62745
C         -1.21304        -5.04282         0.31517
C         -0.02359        -5.70731         0.01548
C          1.21780        -4.97058        -0.09805
C          2.45078        -5.67206        -0.27103
C          3.66000        -4.94389        -0.33533
C          4.90443        -5.63197        -0.81613
C          6.17681        -4.92938        -0.42734
C          7.40634        -5.66499        -0.48025
C          8.63853        -4.93600        -0.40767
C         -7.41764        -7.10793        -0.17904
C         -6.13574        -7.83088        -0.45979
C         -4.92212        -7.13960         0.11723
C         -3.69214        -7.87688         0.11312
C         -2.45108        -7.21817         0.22790
C         -1.22584        -7.88285        -0.01953
C         -0.00258        -7.14958        -0.06938
C          1.22724        -7.83265        -0.26991
C          2.44922        -7.11064        -0.36578
C          3.68923        -7.81654        -0.47022
C          4.91547        -7.11283        -0.55213
C          6.15006        -7.80041        -0.57339
C          7.37632        -7.06825        -0.59328
C         -6.14060        -9.30834        -0.15982
C         -4.98216        -9.99038        -0.05543
C         -3.69149        -9.30838        -0.08139
C         -2.49217        -9.99266        -0.19824
C         -1.22951        -9.31036        -0.20862
C         -0.00358        -9.97836        -0.34709
C          1.23036        -9.27483        -0.35629
C          2.46921        -9.95213        -0.44015
C          3.68937        -9.25352        -0.46575
C          4.95192        -9.93182        -0.51331
C          6.13411        -9.23537        -0.54765
O         -5.97398        -7.74271        -1.93818
H         -5.99137        -6.79025        -2.17313
O          2.43539         2.05219         2.13395
O         -3.02693        -5.58006         1.95953
O          6.06854         4.50255        -0.90727
O         -3.13585         3.31589         2.22702
O         -5.05343        -2.21618         2.28070
O         -0.86789        -3.13849        -1.15734
O          0.65382         1.21411        -0.84545
O         -9.28072         3.76654         1.49151
H         -8.57381         4.22332         1.99739
O          4.85076        -5.51794        -2.29970
H          5.64860        -5.97082        -2.64831
O         -8.48865        -1.05276         1.79815
O          5.07173         5.98890         2.31923
H          4.27503         6.48373         2.60714
O         -5.24169         6.11665         2.09683
H         -4.93317         5.33065         2.59925
O          8.86042        -0.86710         1.93611
H          8.89715        -1.82431         2.14833
O         -1.21481         7.36543        -1.92786
H         -0.40121         7.76168        -2.30824
O          7.77663         5.91493         2.08792
H          6.90732         6.11373         2.51307
H         12.06633        -1.21622        -0.52381
H         12.04940         1.24725        -0.43219
H         10.81978         3.36888        -0.35451
H          9.65509         5.50126        -0.03900
H          8.35086         7.68251        -0.23840
H          7.08564         9.66600        -0.84272
H          4.93790        10.86929        -1.05403
H          2.47820        10.91371        -0.86459
H          0.02641        10.98058        -0.67278
H         -2.46732        10.98308        -0.82959
H         -4.89934        10.92901        -1.17689
H         -7.04946         9.70354        -1.10560
H         -8.28527         7.58411        -0.84417
H         -9.50525         5.51509        -0.73725
H        -10.66594         3.28709        -1.06018
H        -11.72499         1.11872        -1.52222
H        -11.81092        -1.32540        -1.23103
H        -10.70943        -3.41726        -0.57130
H         -9.58484        -5.50866        -0.24876
H         -8.36545        -7.63196        -0.37673
H         -7.10606        -9.83567        -0.13415
H         -4.98653       -11.08373         0.07342
H         -2.50013       -11.08760        -0.30978
H          0.00807       -11.07416        -0.44819
H          2.47767       -11.05205        -0.47615
H          4.96015       -11.03173        -0.51147
H          7.09255        -9.77457        -0.56800
H          8.32515        -7.62464        -0.61955
H          9.58615        -5.48541        -0.51444
H         10.81038        -3.33961        -0.61530
