         671
 CSIRO Nanostructure Databank - Neutral Graphene Oxide Data Set
C          5.85517        31.72227        -0.05308
C          5.84914        33.08146        -0.19565
C          8.38021        27.46362         0.24984
C          8.34049        28.86530         0.38662
C          7.10706        29.60656         0.22602
C          8.22037        31.74252         0.78078
C          7.03596        30.97831         0.32731
C          8.22870        33.27434         0.71180
C          7.02149        33.89430         0.02327
C          8.32586        35.98662        -0.10410
C          7.09756        35.21562        -0.32703
C          8.33311        37.40008        -0.08926
C         10.66547        23.18963        -0.02191
C         10.77144        24.54851         0.37843
C          9.63398        25.34055         0.16931
C         10.82013        27.45750         0.59436
C          9.59205        26.75066         0.36907
C         10.80264        28.87925         0.61992
C          9.56583        29.56189         0.56272
C         10.79943        31.76589         0.59498
C          9.53731        31.01364         0.80953
C         10.76889        33.09576         0.28463
C          9.47305        33.78873        -0.05186
C         10.70581        35.99106         0.70717
C          9.52171        35.28681         0.10216
C         10.77036        37.45823         0.32958
C          9.54600        38.14415         0.07606
C         10.74382        40.30099         0.16902
C          9.55420        39.55578        -0.02843
C         10.75779        41.72195         0.05535
C         13.26739        18.91235        -0.32142
C         13.21282        20.31189        -0.18893
C         11.91593        20.96831        -0.35816
C         13.46164        23.18451         0.67755
C         11.60883        22.16554         0.26317
C         13.33262        24.57452         0.65923
C         12.00293        25.22546         1.02946
C         13.24693        27.43828         0.81915
C         12.04708        26.73501         0.76782
C         13.28315        28.88031         0.77287
C         12.04410        29.62333         0.71156
C         13.28046        31.77363         0.52003
C         12.04406        31.02668         0.64138
C         13.28769        33.09867         0.16585
C         12.00463        33.84624        -0.13394
C         13.30622        36.02679         0.46976
C         12.03672        35.24106         0.52105
C         13.24990        37.50168         0.54297
C         11.98580        38.18519         0.46365
C         13.16800        40.39505         0.86116
C         11.95915        39.60696         0.43736
C         13.22017        41.77797         0.25733
C         11.98040        42.45081         0.02014
C         13.21630        44.54463        -0.40079
C         11.99743        43.84279        -0.24509
C         13.24782        45.96723        -0.51355
C         15.70151        14.57900         0.02700
C         15.66127        15.95185        -0.18436
C         14.47178        16.72961        -0.22889
C         15.69972        18.87731        -0.41785
C         14.48746        18.15558        -0.31201
C         15.67206        20.33934        -0.52305
C         14.44738        21.05887        -0.11765
C         15.74444        23.23360        -0.11571
C         14.55317        22.46526         0.12302
C         15.71147        24.62732         0.14477
C         14.52326        25.30302         0.50732
C         15.78904        27.47426         0.84103
C         14.53075        26.69291         1.10310
C         15.75503        28.87269         0.89830
C         14.50905        29.56762         0.84606
C         15.80369        31.65932         0.30816
C         14.55126        31.07735         0.94188
C         15.85382        33.11266        -0.03975
C         14.54682        33.84964        -0.10059
C         15.84251        36.11910        -0.02979
C         14.54521        35.34689        -0.06182
C         15.75279        37.56802         0.33074
C         14.45442        38.25870         0.56539
C         15.70757        40.43960         0.91604
C         14.45340        39.64197         0.67413
C         15.71610        41.78109         0.21724
C         14.44667        42.44679         0.00379
C         15.69215        44.47706        -0.89056
C         14.43917        43.80624        -0.39500
C         15.70769        45.97212        -0.66581
C         14.46948        46.68608        -0.55389
C         15.72078        48.80822        -0.63621
C         14.50996        48.10571        -0.52161
C         15.75013        50.25040        -0.60136
C         18.19693        10.15672         0.03265
C         17.97727        11.51489         0.52910
C         16.97026        12.34269         0.09270
C         18.22928        14.52142        -0.25683
C         16.98559        13.83630         0.34985
C         18.21041        15.99138        -0.07113
C         16.93448        16.67077        -0.45572
C         18.26599        18.90860        -0.47446
C         16.97136        18.17385        -0.59164
C         18.27743        20.37386        -0.53795
C         16.98520        21.10352        -0.71262
C         18.19901        23.23741        -0.43092
C         16.99935        22.56702        -0.42568
C         18.23537        24.70530        -0.33494
C         16.92999        25.43430        -0.05269
C         18.24208        27.43939         0.55856
C         17.00530        26.79310         0.51434
C         18.26247        28.81651         1.18684
C         17.01773        29.60988         0.86797
C         18.35746        31.68014         0.35959
C         17.06016        30.95313         0.64931
C         18.25550        33.18849         0.54203
C         17.11847        33.86273         0.22307
C         18.21969        36.05087         0.86712
C         17.20588        35.36866        -0.03357
C         18.16984        37.47665         1.04445
C         16.97911        38.28196         0.73404
C         18.20977        40.39940         0.63535
C         16.98877        39.66238         0.74369
C         18.19354        41.75357         0.24987
C         16.93280        42.44000         0.01653
C         18.16937        44.46173        -0.66279
C         16.97157        43.80083        -0.46146
C         18.17151        45.90254        -1.14780
C         16.91202        46.66181        -0.77407
C         18.19538        48.79229        -0.99963
C         16.94558        48.08273        -0.77653
C         18.17338        50.28718        -1.26607
C         16.91162        50.97279        -0.78966
C         18.16563        53.08795        -0.57116
C         16.95529        52.38971        -0.64179
C         18.19856        54.50173        -0.41546
C         20.65490         6.02329        -0.70347
C         20.62119         7.42119        -0.73171
C         19.44330         8.15395        -0.48518
C         20.67808        10.30053        -0.64463
C         19.41679         9.57112        -0.36607
C         20.70571        11.77054        -0.65605
C         19.57764        12.53909        -1.03146
C         20.69159        14.62940        -0.36441
C         19.43558        13.91596        -0.58440
C         20.72959        16.02798        -0.28108
C         19.47215        16.77825        -0.19137
C         20.74271        18.96375        -0.82753
C         19.45077        18.22105        -0.48172
C         20.72696        20.29410        -0.05550
C         19.45045        21.06295        -0.39547
C         20.72864        23.27811        -0.26926
C         19.49654        22.53494        -0.76235
C         20.73331        24.64458        -0.05845
C         19.49482        25.40232        -0.03681
C         20.74704        27.56385         0.13538
C         19.46891        26.76381         0.25830
C         20.79236        28.78616         1.06730
C         19.52927        29.56544         0.93404
C         20.82809        31.70667         0.92155
C         19.50225        31.04082         1.16120
C         20.81219        33.18373         0.88521
C         19.53213        33.93884         0.75587
C         20.75865        36.10439         1.18651
C         19.44484        35.32922         1.37851
C         20.78761        37.46410         0.92974
C         19.52327        38.22640         1.04915
C         20.76430        40.30124         0.31617
C         19.45740        39.60881         0.52018
C         20.71073        41.78543         0.29187
C         19.42058        42.44710        -0.04510
C         20.68780        44.45114        -0.86600
C         19.41701        43.76507        -0.48322
C         20.69170        45.94338        -0.99038
C         19.40334        46.66404        -0.62616
C         20.67061        48.86467        -1.36184
C         19.38492        48.11382        -1.05792
C         20.66819        50.16677        -0.52665
C         19.42324        50.98056        -0.74886
C         20.65445        53.05831        -0.21699
C         19.42436        52.33900        -0.53371
C         20.61992        54.43403        -0.03753
C         19.39282        55.18729        -0.17954
C         20.62200        57.32426         0.07341
C         19.43306        56.61670        -0.04738
C         20.64749        58.76971         0.23342
C         23.06721         3.18712        -0.28457
C         21.87583         3.88529        -0.46717
C         23.13467         5.95992        -0.75806
C         21.88373         5.28961        -0.68355
C         23.17166         7.38977        -1.11019
C         21.86364         8.16223        -1.03388
C         23.19446        10.36553        -0.96735
C         21.86149         9.62733        -0.84539
C         23.15523        11.73734        -0.31263
C         21.90608        12.46401        -0.34275
C         23.09811        14.58348         0.10255
C         21.89911        13.88524        -0.21313
C         23.13016        15.98128         0.07739
C         21.95358        16.72452        -0.17383
C         23.23975        18.89308         0.01317
C         22.08200        18.14930        -0.64800
C         23.25769        20.33921         0.05783
C         22.01220        21.04505        -0.32963
C         23.25537        23.22860         0.06491
C         22.01044        22.54909        -0.32439
C         23.22890        24.63527         0.20386
C         21.99129        25.35777         0.14511
C         23.23030        27.45626         0.42798
C         22.00646        26.74706         0.28776
C         23.22854        28.89467         0.62140
C         22.05798        29.57972         0.82964
C         23.29645        31.76616         0.85176
C         22.02328        31.02808         0.88707
C         23.29896        33.14478         1.11731
C         22.05837        33.84625         1.37404
C         23.28666        36.09570         1.13154
C         22.03520        35.40544         1.40317
C         23.27823        37.47523         0.83084
C         22.02554        38.19183         0.77099
C         23.25695        40.29598         0.42366
C         22.04538        39.59645         0.56940
C         23.28431        41.71523         0.14563
C         22.00436        42.47707         0.08964
C         23.16989        44.59922        -0.29461
C         22.02640        43.72149        -0.76057
C         23.21342        46.01519        -0.67084
C         21.95886        46.72093        -0.88351
C         23.21547        48.82217        -1.04499
C         21.93311        48.07768        -1.05612
C         23.20864        50.31355        -0.85901
C         21.92846        50.99067        -0.63774
C         23.17667        53.03034        -0.12420
C         21.92421        52.33659        -0.28352
C         23.17932        54.43135         0.29016
C         21.84448        55.17449         0.32478
C         23.10396        57.30639         0.11097
C         21.88128        56.62832         0.15165
C         23.13089        58.81444        -0.06960
C         21.80826        59.46716         0.26078
C         22.99956        61.38517         1.30675
C         21.83437        60.96285         0.45152
C         24.29016         3.85958        -0.26988
C         25.58345         5.96459        -0.38893
C         24.34399         5.25871        -0.49033
C         25.66285         7.36023        -0.49637
C         24.49771         8.15054        -1.06798
C         25.62901        10.21408        -0.16005
C         24.31939         9.48811        -0.32771
C         25.56870        11.59503         0.32041
C         24.31405        12.35556         0.09790
C         25.59253        14.49277         0.75477
C         24.28835        13.78108         0.47913
C         25.58483        15.99292         0.69879
C         24.45184        16.69595        -0.01805
C         25.66090        18.85451         0.46604
C         24.40479        18.17978         0.25264
C         25.62174        20.30356         0.76720
C         24.40426        21.05237         0.37349
C         25.65173        23.21383         0.58197
C         24.44069        22.50240         0.33907
C         25.68179        24.61548         0.46511
C         24.45935        25.33825         0.33106
C         25.71043        27.45795         0.20182
C         24.46041        26.76002         0.35700
C         25.65542        28.94415        -0.07377
C         24.56643        29.56527         0.80835
C         25.76448        31.76356         0.68367
C         24.52146        31.06708         0.72829
C         25.80406        33.16622         0.89351
C         24.57590        33.89764         1.37942
C         25.82314        36.03081         0.93941
C         24.52044        35.29692         0.74643
C         25.83679        37.53860         1.00033
C         24.50643        38.17988         0.67088
C         25.72417        40.28590         0.26312
C         24.51406        39.58451         0.46651
C         25.75524        41.76611         0.50298
C         24.46495        42.41436         0.08930
C         25.72521        44.60539        -0.24805
C         24.46150        43.89511         0.02729
C         25.68573        45.95335        -0.56098
C         24.43484        46.66181        -0.62599
C         25.71978        48.85341        -0.58051
C         24.40805        48.14125        -0.40827
C         25.69348        50.27669        -0.43385
C         24.46581        50.98062        -0.47196
C         25.66995        53.10446        -0.07745
C         24.42613        52.37687        -0.23778
C         25.65324        54.51694         0.03342
C         24.41571        55.21561         0.12708
C         25.61894        57.42643        -0.04730
C         24.34821        56.61594         0.10868
C         25.48661        58.72627         0.70991
C         24.30526        59.38970         0.71414
C         24.13140        60.66083         1.40574
C         26.84116         8.06348        -0.23344
C         28.07914        10.16185         0.13837
C         26.86231         9.50306        -0.10494
C         28.19250        11.55602         0.70178
C         26.85617        12.30285         0.71797
C         28.06519        14.45096         0.36218
C         26.89027        13.78343         0.62003
C         28.06934        15.92537         0.18768
C         26.87933        16.70536         0.62060
C         28.14847        18.84862         0.52900
C         26.86971        18.17906         0.45333
C         28.23443        20.27545         1.09044
C         26.88106        21.01909         1.14742
C         28.18258        23.26839         0.95190
C         26.84501        22.56865         1.25554
C         28.16136        24.68203         0.52192
C         26.93944        25.34524         0.41630
C         28.14105        27.46856        -0.33367
C         26.89651        26.76449         0.14383
C         28.17462        28.94751        -0.01835
C         26.98509        29.64064         0.11952
C         28.18679        31.78503         0.28566
C         26.98244        31.06844         0.36457
C         28.21542        33.18338         0.50700
C         26.99904        33.88085         0.75903
C         28.27785        36.03510         0.68588
C         27.00788        35.33865         0.82975
C         28.28584        37.44545         0.47460
C         26.94817        38.05051         0.07455
C         28.26669        40.32513        -0.03763
C         26.96319        39.56671        -0.03459
C         28.26328        41.80146         0.09961
C         27.00454        42.50342         0.06162
C         28.21256        44.63092        -0.31584
C         26.97376        43.87683        -0.16999
C         28.19943        45.93960        -0.71046
C         26.92091        46.68322        -1.04140
C         28.14286        48.87005        -0.44368
C         26.92298        48.15462        -0.61817
C         28.15698        50.25853        -0.25342
C         26.92514        50.98953        -0.25607
C         28.15979        53.12517        -0.00708
C         26.90718        52.39908        -0.11412
C         28.12895        54.52677         0.13552
C         26.90241        55.25844         0.13087
C         26.86725        56.64433         0.23988
C         29.33700        12.37819         0.14888
C         30.56787        14.49705        -0.34848
C         29.31470        13.73499         0.09843
C         30.61984        15.98045        -0.00322
C         29.32935        16.70298        -0.06383
C         30.60502        18.84877         0.12596
C         29.30492        18.15748         0.23970
C         30.60943        20.32940         0.15802
C         29.26949        21.06833         0.27892
C         30.68641        23.19303         0.31380
C         29.44826        22.49637         0.75793
C         30.67317        24.63607         0.18274
C         29.41259        25.37421         0.25617
C         30.69431        27.49721         0.18000
C         29.40232        26.74239         0.03349
C         30.65173        28.96288        -0.17039
C         29.43643        29.63512        -0.06747
C         30.69778        31.78956         0.16076
C         29.41913        31.12619        -0.27534
C         30.69368        33.12391         0.50949
C         29.46770        33.87914         0.55624
C         30.75305        36.00040         0.61627
C         29.48383        35.29438         0.65039
C         30.74654        37.46856         0.61767
C         29.48141        38.17386         0.47954
C         30.69149        40.33999         0.40041
C         29.51857        39.60717         0.28114
C         30.72653        41.76885         0.20365
C         29.47165        42.47807         0.11066
C         30.75842        44.57374        -0.29042
C         29.47412        43.98265         0.22044
C         30.77718        45.92784        -0.94891
C         29.45919        46.68998        -0.89398
C         30.65402        48.80600        -0.00937
C         29.43670        48.16605        -0.64448
C         30.63734        50.30004        -0.18132
C         29.42656        50.98801        -0.15914
C         29.37767        52.40944        -0.06133
C         31.79276        16.64690         0.21440
C         33.05728        18.80523         0.30478
C         31.87526        18.10026         0.29662
C         33.12889        20.26444         0.32542
C         31.85689        21.03304         0.65537
C         33.12393        23.08780        -0.30104
C         31.84165        22.47264         0.18730
C         33.11356        24.59734        -0.25565
C         31.87475        25.28696        -0.11328
C         33.11107        27.45301        -0.75137
C         31.84456        26.73311        -0.41974
C         33.12141        28.97964        -0.87773
C         31.89155        29.67290        -0.29362
C         33.17351        31.77562         0.03962
C         31.93385        31.05978        -0.02926
C         33.21911        33.12456         0.41271
C         31.96548        33.79717         0.95325
C         33.20339        36.00434         0.81373
C         31.92776        35.28640         0.69295
C         33.19465        37.45249         0.47960
C         31.92535        38.18015         0.65728
C         33.21580        40.36996         0.44186
C         31.94807        39.67073         0.88293
C         33.21766        41.73323         0.19274
C         31.95689        42.46025         0.11548
C         33.20313        44.59778        -0.45570
C         31.94640        43.87849        -0.21139
C         33.21935        45.96284        -0.54296
C         31.98798        46.74183        -0.53582
C         31.94601        48.08373        -0.31917
C         34.29895        20.95897         0.22322
C         35.59174        23.19879         0.09643
C         34.31330        22.46386         0.43450
C         35.58743        24.54710        -0.21119
C         34.32929        25.28236        -0.37702
C         35.55873        27.42191        -0.34249
C         34.37406        26.71478        -0.52172
C         35.55275        28.87871        -0.24265
C         34.41739        29.61295        -0.42704
C         35.69274        31.74977         0.02418
C         34.43019        31.12263        -0.49595
C         35.69118        33.16189         0.22288
C         34.46045        33.82657         0.43465
C         35.76515        36.02764         0.50686
C         34.50678        35.26923         0.74640
C         35.77840        37.41820         0.50726
C         34.50018        38.16735         0.40408
C         35.80571        40.36120         0.43776
C         34.48589        39.64096         0.63327
C         35.68578        41.76092         0.00351
C         34.48619        42.41051        -0.07872
C         34.50529        43.84427        -0.57613
C         36.81185        25.30847        -0.26904
C         38.05311        27.44402        -0.28354
C         36.81752        26.69660        -0.27526
C         38.08730        28.81539        -0.11509
C         36.81535        29.52747         0.28842
C         38.12307        31.70618         0.16461
C         36.87066        31.02409         0.09280
C         38.15759        33.12052         0.21011
C         36.94309        33.86477         0.30383
C         38.22777        35.98842         0.27348
C         36.97803        35.28197         0.37563
C         38.22524        37.39182         0.23522
C         37.01578        38.15064         0.32560
C         37.00289        39.54699         0.17611
C         39.30693        29.55963        -0.11568
C         40.59148        31.67641         0.03991
C         39.34774        30.94578         0.05195
C         40.62528        33.04102         0.10037
C         39.41538        33.82735         0.17705
C         39.43530        35.21888         0.19207
O         23.60111        44.44794         1.10323
O         23.40114        49.64611        -2.21531
O         16.20246        20.75663        -1.87412
O         27.60847        39.94990        -1.32210
O         20.05167        39.71654        -0.82921
O         21.36759        42.50290         1.40349
O         20.40689        33.80837        -0.40491
O         32.22365        26.92397        -1.81958
O         22.43950         7.72703        -2.33689
O         29.08096        22.92106         2.09468
O         28.46039        16.29920        -1.18450
O         12.46885        22.47731         1.35186
O         26.21920        16.45963         1.92759
O         17.46435        25.36155        -1.41205
O          8.78817        31.30108         2.06257
O         12.86032        35.31211         1.72615
O         20.59980        45.11026        -2.18802
O         24.74929        14.03064         1.85851
O         22.51994        17.75920        -1.96030
O         26.03218        20.47516         2.20174
O         18.82167        16.50536         1.15326
O         35.23838        40.08428         1.80351
O         22.01620        34.55984         2.65292
O         15.83626        37.12488        -1.10251
O         26.00218        11.75499         1.77037
O         33.91255        35.64742         2.06934
O         30.72307        19.69111        -1.13865
O         16.97820        17.26202        -1.78248
O         29.47802        47.66699        -2.02352
O         18.84049        37.98405         2.29180
O         14.40957        34.66213        -1.34629
O         22.47430        54.68625         1.56095
O         33.79317        37.78335        -0.84198
O         22.11422        21.74527        -1.59619
O         15.84006        32.06780        -1.09683
O         24.81814        16.55603        -1.42737
H         24.05874        16.99792        -1.92288
O         25.78136        41.91144         1.98446
H         25.38400        42.78196         2.20680
O         24.98128        29.25534         2.17708
H         24.25695        29.51696         2.78394
O         24.89272         8.43300        -2.44056
H         24.56422         7.70153        -3.00540
O         18.65135        31.45450        -1.03437
H         17.89030        31.79758        -1.55717
O         31.94754        39.84970         2.35528
H         32.86298        39.69711         2.67747
O         18.18904        45.89923        -2.59419
H         17.43120        45.33812        -2.88379
O         15.71479        40.78302         2.35183
H         14.77070        40.96442         2.60373
O         17.74610        35.46894        -1.37781
H         17.31251        36.24629        -1.80640
O         31.00244        45.62372        -2.36464
H         30.78909        46.44796        -2.85968
O         14.72792        31.38939         2.36464
H         14.00674        30.94896         2.86246
O         19.31284        46.66403         0.82408
H         19.82078        47.43374         1.16444
O         15.68034        44.32306        -2.37333
H         14.82277        44.67943        -2.69219
O         28.70405        20.14549         2.44093
H         27.91982        19.93296         2.99543
O         26.20106        37.94882         2.34514
H         25.53081        37.59934         2.96866
O         29.34131        31.33204        -1.73681
H         28.55969        30.83362        -2.05894
O         26.62903        37.52782        -1.24049
H         27.09503        38.10451        -1.89023
O         19.16374        31.25192         2.58368
H         19.95070        31.00165         3.11494
O         11.87121        34.06034        -1.57275
H         12.77239        34.31184        -1.90893
O         14.52763        26.44493         2.55678
H         13.65181        26.04293         2.78008
O         28.06171        27.42652        -1.81858
H         28.14726        26.48672        -2.08903
O         32.02421        33.64983         2.41167
H         32.75866        34.23795         2.71734
O         31.73722        13.82441         0.11406
H         31.68850        13.74974         1.08900
O         18.87615        11.96306         1.47545
H         19.49118        11.23716         1.70560
O         25.73270        57.78869        -1.48950
H         25.83760        56.95116        -1.99014
O         20.62861        49.66895         0.86164
H         20.65099        50.44582         1.46115
O         17.20318        14.08650         1.76615
H         17.95000        13.51566         2.05878
O         18.71458        12.07820        -1.94190
H         18.92468        11.14906        -2.17424
O         22.37804        43.25380        -2.08624
H         21.95297        43.86943        -2.72989
O         19.25520        35.12609         2.81174
H         19.18857        36.01965         3.21874
O         24.39296        35.12000        -0.69786
H         24.77002        35.91291        -1.14023
O         26.82908        46.71604        -2.49994
H         27.66741        47.12786        -2.81712
O         20.67835        49.24469        -2.76082
H         20.83626        48.44022        -3.29850
O          9.22052        33.48081        -1.45608
H         10.05838        33.67995        -1.94137
O         20.72146        20.03395         1.36771
H         19.99068        19.40897         1.56462
O         23.35239        59.10916        -1.47891
H         24.24451        58.74174        -1.71391
O         20.74414        28.10805        -1.21262
H         20.65737        27.36557        -1.84665
O         33.02063        29.26501        -2.31368
H         32.43183        28.56666        -2.69143
O         18.20543        28.58418         2.66140
H         18.15386        29.48352         3.06605
O         11.87389        25.07997         2.47829
H         11.84599        24.11197         2.65674
O         19.59357        22.55719        -2.21927
H         20.40634        22.04318        -2.45365
O         34.09040        22.68916         1.87093
H         34.89883        22.40531         2.34754
O         25.27982        29.12972        -1.46065
H         25.95662        28.67781        -2.01085
O         28.55507        11.33201         2.10890
H         27.70382        11.17646         2.58216
O         31.01016        27.47959         1.61918
H         30.23023        27.81974         2.10688
O         10.43382        36.00722         2.14842
H         11.31231        35.91600         2.59162
O         36.72994        29.35275         1.74885
H         37.55843        29.70715         2.13603
O         23.84654         9.14104         1.01006
H         24.18127         9.81426         1.64093
O         30.42597        48.57140         1.43349
H         31.11434        49.06450         1.92787
O         26.59187        22.87575         2.65290
H         27.42447        22.67601         3.13880
O         34.45853        31.47634        -1.92365
H         33.82442        30.87264        -2.38519
O         29.44549        44.29095         1.66631
H         30.14104        43.74935         2.09746
O         24.11226        48.27637         1.03447
H         24.71393        47.67888         1.52810
O         20.60678        61.45062         0.99810
H         20.50335        61.08353         1.89939
O          8.23974        33.78562         2.05046
H          8.58684        33.07030         2.63395
O         20.88419        28.31474         2.45317
H         19.95922        28.13047         2.76509
O         23.46764        10.64737        -2.35322
H         23.86908         9.83379        -2.75307
O         20.63280        19.30104        -2.21444
H         21.33145        18.74186        -2.66518
O         18.19032        50.47260        -2.71610
H         19.05434        50.10764        -3.03579
O         31.76138        21.07081         2.10270
H         32.46962        21.68539         2.41297
O         28.71027        21.21297        -1.04932
H         29.18262        20.55653        -1.62305
O         33.28713        22.72038        -1.70388
H         32.55801        23.13170        -2.21349
O         13.00202        40.63293         2.34770
H         12.73353        39.77619         2.74564
O         24.71131        34.05695         2.81977
H         23.81363        34.29340         3.16405
O         34.89869        43.84678        -1.96651
H         34.13552        43.53947        -2.49828
H          4.94796        31.14835        -0.29515
H          4.93526        33.58071        -0.55304
H          7.44779        26.90995         0.06457
H          6.20793        29.04431        -0.07036
H          6.22349        35.72856        -0.75783
H          7.39301        37.94969        -0.24579
H          9.78830        22.92404        -0.63335
H          8.71363        24.84732        -0.18092
H          8.61477        40.08552        -0.24630
H          9.81306        42.25388        -0.13020
H         12.32008        18.35919        -0.39983
H         11.21494        20.51993        -1.07728
H         11.04582        44.38986        -0.31926
H         12.29905        46.52305        -0.48346
H         14.75507        14.03922         0.18475
H         13.50133        16.22546        -0.11119
H         13.56708        48.66546        -0.43089
H         14.81252        50.78277        -0.37616
H         17.30812         9.50796        -0.02567
H         16.29822        11.95926        -0.68735
H         16.01224        52.93698        -0.48701
H         17.25680        55.06613        -0.48867
H         19.71563         5.46991        -0.55386
H         18.51909         7.59908        -0.26381
H         18.48209        57.16867        -0.08677
H         19.69138        59.29669         0.37887
H         23.04238         2.10065        -0.12077
H         20.91386         3.35445        -0.42930
H         22.91018        62.34506         1.83736
H         21.94924        61.44452        -0.56020
H         25.22315         3.30839        -0.08568
H         26.48458         5.39994        -0.10370
H         26.36445        59.13488         1.23410
H         24.97111        61.02595         2.01785
H         27.75541         7.50639         0.02322
H         28.99632         9.55355         0.17533
H         29.07604        55.08060         0.21940
H         27.81215        57.20270         0.32449
H         30.27849        11.84856        -0.06467
H         30.59403        14.44198        -1.47361
H         31.58322        50.85967        -0.11240
H         30.32472        52.96613         0.00533
H         32.73057        16.07018         0.25199
H         34.01062        18.25257         0.29919
H         34.18263        46.49507        -0.58405
H         32.88713        48.62741        -0.13004
H         35.24910        20.42813         0.04951
H         36.55084        22.71377         0.34348
H         36.60005        42.28536        -0.31525
H         35.30838        44.40394        -0.02831
H         37.76864        24.76570        -0.22708
H         38.99420        26.89056        -0.43018
H         39.17950        37.92862         0.12566
H         37.93422        40.06449        -0.09919
H         40.25025        29.01586        -0.28217
H         41.52958        31.10641        -0.03433
H         41.59058        33.56830         0.08029
H         40.39867        35.74827         0.13759
