         600
 CSIRO Nanostructure Databank - Neutral Graphene Oxide Data Set
C         23.01489        27.34064        -0.69295
C         23.05875        28.70431        -0.85779
C         23.11579        31.63069        -1.13909
C         23.12285        33.01252        -1.18847
C         23.08410        35.92364        -1.11997
C         23.03752        37.30818        -0.99521
C         22.89169        40.28173        -0.66702
C         22.90786        41.63980        -0.55596
C         22.97106        44.68397        -0.72027
C         23.05842        46.02991        -0.85532
C         25.35825        24.53317         0.17100
C         24.16032        25.23372        -0.06101
C         25.30443        27.39968         0.23787
C         24.13228        26.62467        -0.17344
C         25.40087        28.81527        -0.13003
C         24.24543        29.47115        -0.59948
C         25.47567        31.62441        -0.50574
C         24.27090        30.90553        -0.76773
C         25.48407        33.05391        -0.58740
C         24.28852        33.75496        -0.89229
C         25.45499        35.93615        -0.55016
C         24.26951        35.21047        -0.86687
C         25.41431        37.36082        -0.44571
C         24.17416        38.03723        -0.62661
C         25.39570        40.26934        -0.19832
C         24.07483        39.48623        -0.33136
C         25.34162        41.72426        -0.37425
C         24.13025        42.38576        -0.39096
C         25.42972        44.59350        -0.07794
C         24.11079        43.87360        -0.24736
C         25.46892        46.05882        -0.28353
C         24.28648        46.76054        -0.60596
C         25.53279        48.83991        -0.44829
C         24.35221        48.16512        -0.72157
C         27.89172        23.06174         0.22068
C         27.85848        24.47060         0.27778
C         26.59362        25.17269         0.30128
C         27.89114        27.35961         0.35818
C         26.62525        26.62222         0.49285
C         27.87183        28.77863         0.24897
C         26.64493        29.49818         0.01685
C         27.90144        31.62391        -0.03572
C         26.67192        30.91142        -0.17179
C         27.89441        33.04956        -0.16663
C         26.71043        33.77729        -0.37379
C         27.86518        35.96736        -0.09567
C         26.69684        35.23222        -0.35205
C         27.87237        37.40538        -0.08762
C         26.64098        38.10232        -0.24791
C         27.89128        40.21018        -0.38751
C         26.66787        39.52294        -0.32044
C         27.89971        41.64957        -0.71354
C         26.61125        42.43449        -0.66298
C         27.88786        44.55262        -0.29969
C         26.70381        43.87381        -0.35047
C         27.86552        45.90255         0.38873
C         26.67799        46.73487        -0.05590
C         27.90718        48.85278         0.38317
C         26.70938        48.14638        -0.07143
C         27.96740        50.22470         0.45699
C         30.30991        23.06600         0.39496
C         29.09492        22.37576         0.29111
C         30.32161        24.47736         0.43378
C         29.08936        25.19383         0.37371
C         30.35347        27.34772         0.45118
C         29.10378        26.63739         0.38951
C         30.35060        28.77263         0.40444
C         29.11689        29.48886         0.26898
C         30.36579        31.62696         0.31815
C         29.11864        30.90979         0.17033
C         30.36618        33.01415         0.34384
C         29.17477        33.75417        -0.07796
C         30.31278        35.98118         0.58860
C         29.15491        35.26462        -0.01896
C         30.32572        37.46591         0.45407
C         29.09293        38.14290         0.00703
C         30.39107        40.27496        -0.10785
C         29.12541        39.53421        -0.19163
C         30.43034        41.66224        -0.28375
C         29.20432        42.39388        -0.68544
C         30.49169        44.69341        -0.45353
C         29.18487        43.91362        -0.62551
C         30.38154        46.01051         0.28865
C         29.17575        46.64830         0.38187
C         30.38770        48.80303         1.10264
C         29.08583        48.06352         0.80764
C         30.35767        50.27749         1.01132
C         29.17080        50.92198         0.77975
C         32.83395        20.42043        -0.47599
C         31.68017        21.09746        -0.40582
C         32.83312        23.07117         0.57097
C         31.56345        22.24978         0.57251
C         32.78580        24.48288         0.72245
C         31.57387        25.19767         0.59969
C         32.83466        27.34404         0.63294
C         31.57888        26.62803         0.59269
C         32.83512        28.77461         0.50708
C         31.60002        29.48879         0.44140
C         32.85525        31.62177         0.40430
C         31.61399        30.90619         0.42246
C         32.88181        33.04872         0.43857
C         31.60776        33.74348         0.64674
C         32.87043        35.97250         0.48491
C         31.61318        35.24811         0.73624
C         32.84221        37.40729         0.36014
C         31.62773        38.15071         0.33449
C         32.86413        40.25669         0.12815
C         31.62310        39.55092         0.13064
C         32.86867        41.68775         0.09094
C         31.64723        42.41248        -0.07963
C         32.86705        44.53313         0.22514
C         31.66488        43.83570        -0.01923
C         32.86831        45.97914         0.41392
C         31.64177        46.70011         0.53388
C         32.88831        48.77580         0.94088
C         31.66307        48.07684         0.88083
C         32.93096        50.21859         1.27576
C         31.61542        51.01297         1.27953
C         32.92027        53.07729         0.97860
C         31.71851        52.44605         0.99910
C         35.36978        18.74132        -0.28631
C         35.29655        20.10438         0.29193
C         34.02199        20.91051         0.27543
C         35.28886        23.09607         0.70044
C         34.04599        22.38419         0.51985
C         35.31246        24.45726         0.90638
C         34.02662        25.20264         1.18094
C         35.29899        27.35235         0.73030
C         34.05471        26.65844         0.79166
C         35.30364        28.77345         0.55069
C         34.07017        29.48523         0.48254
C         35.32207        31.63887         0.34930
C         34.08653        30.91302         0.39998
C         35.32255        33.07438         0.31463
C         34.07799        33.78576         0.39745
C         35.31648        35.94580         0.24065
C         34.07051        35.24188         0.39204
C         35.31476        37.37456         0.20580
C         34.08512        38.10638         0.24614
C         35.33862        40.23657         0.16802
C         34.09057        39.53090         0.18869
C         35.34261        41.67025         0.19625
C         34.10280        42.39206         0.18437
C         35.34123        44.52086         0.31884
C         34.10061        43.81279         0.26126
C         35.34111        45.94077         0.45634
C         34.09928        46.67035         0.55218
C         35.35541        48.81791         0.83794
C         34.11478        48.09245         0.74311
C         35.40549        50.22914         0.91752
C         34.18429        50.96828         1.05659
C         35.42304        53.09952         0.91781
C         34.17773        52.37021         1.04109
C         35.46110        54.51546         0.95628
C         37.75505        19.00080        -0.99686
C         36.49726        18.20103        -0.77004
C         37.82148        20.24283        -0.14756
C         36.59951        20.84270         0.42943
C         37.78493        23.12012         0.33681
C         36.56414        22.33166         0.67346
C         37.84538        24.52171         0.76832
C         36.58658        25.19840         1.27247
C         37.74650        27.36652         0.72954
C         36.54309        26.66409         0.86079
C         37.74692        28.76362         0.49174
C         36.53608        29.48670         0.45658
C         37.78608        31.64891         0.26330
C         36.55046        30.92711         0.33588
C         37.78526        33.07655         0.19703
C         36.54755        33.78955         0.22213
C         37.77531        35.93461        -0.01833
C         36.54430        35.22759         0.15375
C         37.75641        37.34990        -0.07897
C         36.55047        38.07879         0.08612
C         37.80018        40.23788         0.09280
C         36.55855        39.51964         0.10893
C         37.81046        41.66016         0.18089
C         36.57004        42.37609         0.21296
C         37.80048        44.52557         0.15769
C         36.57285        43.80986         0.24798
C         37.78076        45.93629         0.25801
C         36.57434        46.62278         0.51045
C         37.92621        48.82313         0.75539
C         36.60110        48.05360         0.86265
C         37.87681        50.27870         0.61087
C         36.65264        50.95502         0.78404
C         37.86841        53.10940         0.55695
C         36.64509        52.39186         0.75497
C         37.86898        54.53559         0.56095
C         36.64321        55.20890         0.78956
C         40.29450        16.19926        -1.56481
C         39.09194        16.88385        -1.43422
C         40.27897        18.86702        -0.65101
C         39.05651        18.21183        -0.97955
C         40.27546        20.22579        -0.21765
C         39.04877        20.89972        -0.01675
C         40.34024        23.08752         0.31779
C         39.06831        22.37533         0.12668
C         40.31085        24.49372         0.48226
C         39.04740        25.17873         0.72988
C         40.32696        27.36525         0.75405
C         39.03720        26.64530         0.93921
C         40.30736        28.76271         0.24909
C         38.99927        29.48254         0.17555
C         40.25885        31.63674         0.20595
C         39.02705        30.95314         0.22268
C         40.26255        33.06970         0.15859
C         39.02706        33.77942         0.11485
C         40.26565        35.88135        -0.09836
C         39.03079        35.20721        -0.02892
C         40.30359        37.32053        -0.37989
C         38.99396        38.09298        -0.36664
C         40.24631        40.23096        -0.06153
C         39.03019        39.54543        -0.09212
C         40.26691        41.63495         0.15760
C         39.05251        42.35872         0.19888
C         40.26822        44.49511         0.01612
C         39.06457        43.81273         0.11428
C         40.31092        45.92811        -0.25650
C         38.99645        46.70195        -0.05971
C         40.29761        48.81381         0.01974
C         39.10634        48.12434         0.23783
C         40.31212        50.25482         0.11563
C         39.09269        50.97051         0.33322
C         40.30989        53.10507         0.13017
C         39.09261        52.39913         0.33419
C         40.30899        54.53813         0.12803
C         39.09976        55.25730         0.33684
C         40.31077        57.36518         0.09782
C         39.13627        56.68141         0.31375
C         42.76865        16.17270        -1.51701
C         41.52477        16.84276        -1.28893
C         42.78315        18.86663        -0.61836
C         41.52879        18.18349        -0.82402
C         42.80487        20.21786        -0.18055
C         41.53498        20.85714         0.32446
C         42.78390        23.06122         0.28692
C         41.55211        22.37093         0.25331
C         42.78570        24.48961         0.36049
C         41.55344        25.20079         0.48027
C         42.77846        27.34724         0.44638
C         41.58420        26.62308         0.53812
C         42.77723        28.80162         0.43377
C         41.56296        29.52130         0.34891
C         42.75564        31.64584         0.29297
C         41.52488        30.92939         0.26784
C         42.74981        33.07677         0.23374
C         41.50615        33.77577         0.15988
C         42.74493        35.91786         0.10496
C         41.50734        35.19901         0.06749
C         42.73815        37.36619         0.05242
C         41.55562        38.04627        -0.15856
C         42.70466        40.18808         0.34117
C         41.55287        39.53402        -0.41010
C         42.72438        41.67001         0.08410
C         41.54278        42.34349         0.14530
C         42.80776        44.53135        -0.05976
C         41.55411        43.82665         0.40094
C         42.80240        45.96486        -0.13527
C         41.56804        46.68098        -0.14449
C         42.77270        48.81355        -0.25874
C         41.54333        48.09004        -0.17225
C         42.76423        50.24250        -0.24699
C         41.53141        50.95992        -0.06693
C         42.75595        53.09850        -0.25975
C         41.53327        52.38980        -0.06354
C         42.75880        54.53169        -0.27978
C         41.53333        55.24345        -0.08699
C         42.75302        57.36077        -0.32199
C         41.53295        56.66630        -0.10444
C         43.95961        16.82510        -1.34237
C         45.25212        18.86940        -0.70590
C         44.00768        18.18735        -0.90489
C         45.24705        20.20422        -0.25036
C         44.02695        20.90610        -0.02555
C         45.23533        23.06621         0.27768
C         44.03685        22.34478         0.22974
C         45.25278        24.49923         0.29217
C         44.01675        25.21314         0.34008
C         45.25030        27.35609         0.37471
C         44.02196        26.63982         0.37755
C         45.25257        28.79437         0.41856
C         44.00559        29.51109         0.41618
C         45.22714        31.65820         0.34997
C         43.99146        30.93660         0.35755
C         45.22427        33.08157         0.29384
C         43.97934        33.79297         0.23803
C         45.22984        35.93677         0.19967
C         43.97630        35.22098         0.18441
C         45.23956        37.36204         0.16146
C         44.00802        38.08925         0.11699
C         45.24389        40.21835         0.08961
C         44.01850        39.48516         0.11404
C         45.25392        41.63552        -0.04005
C         43.97271        42.33635        -0.41721
C         45.24486        44.51445        -0.30626
C         43.99295        43.82844        -0.20513
C         45.25689        45.94587        -0.36274
C         44.01993        46.66887        -0.29930
C         45.22749        48.80679        -0.54259
C         44.01017        48.10169        -0.37379
C         45.21815        50.23847        -0.58773
C         43.98334        50.95451        -0.40725
C         45.20284        53.09640        -0.60820
C         43.97937        52.38273        -0.42820
C         45.20890        54.52237        -0.65470
C         43.96930        55.24954        -0.48614
C         43.93166        56.67125        -0.50581
C         47.72085        18.87036        -0.79539
C         46.52357        18.22609        -0.94682
C         47.79652        20.22975        -0.34339
C         46.52743        20.85222         0.07340
C         47.77169        23.09582         0.14125
C         46.52239        22.35391         0.35478
C         47.74014        24.50873         0.16649
C         46.48368        25.21383         0.27006
C         47.71735        27.36030         0.30487
C         46.48179        26.63891         0.31390
C         47.71772        28.78393         0.39864
C         46.46996        29.50526         0.43868
C         47.67830        31.67231         0.43751
C         46.46535        30.94920         0.42400
C         47.69098        33.07917         0.34815
C         46.45875        33.79533         0.29246
C         47.70211        35.94275         0.30864
C         46.45986        35.22860         0.26177
C         47.70824        37.36482         0.27432
C         46.47268        38.07704         0.20009
C         47.71132        40.22193         0.13010
C         46.47916        39.50352         0.14730
C         47.70902        41.64234         0.01685
C         46.46562        42.34682        -0.09023
C         47.70391        44.48759        -0.31232
C         46.46823        43.78745        -0.25735
C         47.71193        45.91237        -0.50784
C         46.48091        46.63849        -0.51107
C         47.66952        48.76243        -0.87148
C         46.48353        48.08558        -0.64189
C         47.66314        50.22457        -1.22795
C         46.42079        50.95229        -0.78289
C         47.66663        53.07929        -0.86378
C         46.42943        52.37074        -0.75950
C         47.63517        54.48089        -0.94910
C         46.43873        55.18420        -0.86674
C         50.27919        20.29389        -0.38037
C         48.98927        20.95349        -0.27363
C         50.19352        23.12983        -0.22096
C         48.98840        22.39787        -0.08988
C         50.20297        24.53179        -0.01707
C         48.96451        25.23111         0.13272
C         50.18461        27.37090         0.23824
C         48.95575        26.65763         0.22543
C         50.17156        28.79138         0.32036
C         48.94767        29.47912         0.41597
C         50.14770        31.63913         0.02611
C         48.97655        30.95758         0.72242
C         50.17918        33.11738         0.33248
C         48.95024        33.80699         0.35957
C         50.17912        35.94584         0.43261
C         48.94145        35.23241         0.37749
C         50.17945        37.37488         0.38909
C         48.94600        38.08420         0.29583
C         50.18260        40.22299         0.18466
C         48.94853        39.50800         0.20734
C         50.17749        41.65123         0.05944
C         48.94740        42.35450        -0.03953
C         50.17033        44.49345        -0.27080
C         48.94140        43.78184        -0.20854
C         50.16575        45.91325        -0.49213
C         48.94351        46.59507        -0.65507
C         50.18910        48.78524        -0.74672
C         48.94918        48.01751        -1.15151
C         50.15963        50.21495        -0.70640
C         48.94001        50.94135        -0.86087
C         50.13838        53.03217        -0.51426
C         48.92364        52.34124        -0.77559
C         51.43345        20.98047        -0.50789
C         52.71832        23.16883        -0.40127
C         51.43211        22.46268        -0.77485
C         52.70402        24.53205        -0.01627
C         51.44172        25.25279         0.07049
C         52.65424        27.38238         0.41529
C         51.43167        26.65544         0.23897
C         52.66202        28.78102         0.44925
C         51.42860        29.52054         0.34782
C         52.65257        31.65041         0.45873
C         51.43990        30.91365         0.30628
C         52.63623        33.05582         0.55200
C         51.41154        33.79812         0.47757
C         52.63146        35.96601         0.68028
C         51.41251        35.23652         0.54679
C         52.64752        37.37247         0.53451
C         51.41493        38.09124         0.39858
C         52.65802        40.23361         0.27124
C         51.41424        39.51198         0.27604
C         52.64752        41.67379         0.13732
C         51.42052        42.36863         0.01920
C         52.63522        44.51450        -0.22375
C         51.41030        43.79481        -0.15377
C         52.62724        45.94461        -0.36328
C         51.40678        46.63933        -0.50623
C         52.63045        48.80561        -0.42715
C         51.39259        48.08577        -0.56693
C         52.62238        50.22410        -0.39443
C         51.37557        50.93560        -0.48406
C         51.32595        52.34967        -0.38518
C         55.14679        23.18123        -0.30846
C         53.94854        22.51914        -0.55574
C         55.15580        24.52856         0.10467
C         53.92365        25.20306         0.23985
C         55.17008        27.38517         0.46175
C         53.90628        26.61712         0.76445
C         55.15604        28.78574         0.46711
C         53.90547        29.51867         0.51543
C         55.14561        31.65713         0.49043
C         53.89989        30.91818         0.53851
C         55.15296        33.06032         0.57260
C         53.88496        33.72198         1.08248
C         55.18930        35.98697         0.68813
C         53.88632        35.24789         0.97236
C         55.12849        37.42236         0.38686
C         53.89469        38.10531         0.46631
C         55.15916        40.27530         0.57878
C         53.86799        39.53172         0.36445
C         55.12431        41.71145         0.13627
C         53.88668        42.39463         0.05475
C         55.10757        44.52693        -0.20736
C         53.87529        43.81300        -0.13668
C         55.09991        45.96145        -0.28509
C         53.87264        46.66402        -0.34372
C         55.10072        48.81275        -0.30807
C         53.87059        48.09601        -0.36083
C         55.05784        50.23452        -0.26465
C         53.86450        50.91384        -0.29355
C         57.65589        24.58149         0.29815
C         56.41943        25.24878         0.28836
C         57.63461        27.39799         0.32659
C         56.40216        26.67460         0.36364
C         57.62885        28.82189         0.31030
C         56.38787        29.51621         0.36554
C         57.59162        31.65659         0.18050
C         56.37112        30.93656         0.34433
C         57.54961        33.06505         0.04458
C         56.35969        33.78635         0.31862
C         57.56338        35.93772        -0.07262
C         56.38924        35.22474         0.31189
C         57.56784        37.37748        -0.11138
C         56.35860        38.11926         0.11542
C         57.58524        40.24004        -0.13303
C         56.37440        39.52603         0.09543
C         57.59132        41.67620        -0.13130
C         56.33979        42.39820        -0.04667
C         57.58275        44.53047        -0.26980
C         56.33867        43.81868        -0.19002
C         57.57563        45.95839        -0.30045
C         56.33999        46.67790        -0.29684
C         57.60400        48.78167        -0.32640
C         56.34927        48.09974        -0.30703
C         58.86049        25.28228         0.32819
C         60.09935        27.43270         0.28281
C         58.87312        26.68908         0.31091
C         60.09608        28.79980         0.25506
C         58.86824        29.54807         0.26075
C         60.05619        31.76221         0.25366
C         58.84733        30.95918         0.18984
C         60.03166        33.09105         0.01157
C         58.77376        33.73879        -0.51546
C         59.90962        35.95074        -0.75352
C         58.75671        35.23942        -0.40668
C         59.93447        37.33986        -0.72414
C         58.77320        38.07787        -0.39885
C         59.99238        40.25735        -0.54922
C         58.79057        39.52380        -0.37343
C         60.00316        41.63380        -0.49650
C         58.80582        42.37706        -0.30233
C         60.02832        44.56527        -0.33984
C         58.81537        43.82763        -0.30094
C         60.02799        45.94501        -0.34796
C         58.80817        46.66831        -0.33213
C         58.79205        48.09332        -0.34325
O         54.67211        35.78743         2.08944
O         37.43982        48.31979         2.05026
O         30.04252        36.79059         1.76270
O         39.77779        27.16487         2.10681
O         39.50235        46.35450        -1.39990
O         24.63420        44.22734         1.09381
O         46.58044        21.37819         1.44994
O         31.59598        34.44340         1.96560
O         29.50744        34.60077        -1.28034
O         36.79067        21.40835         1.78004
O         29.53823        48.28122         2.18661
O         29.28967        43.20332        -1.90637
O         39.63078        37.72209        -1.65009
O         32.25281        50.57611         2.52546
O         39.64248        28.91614        -1.05306
O         25.78419        27.10575         1.58584
O         38.28567        22.93506        -1.03102
O         27.15599        41.96375        -1.94597
O         24.63798        39.82018         0.97608
O         34.41611        20.13253         1.46711
O         30.87076        45.15221        -1.79480
H         30.61862        44.42545        -2.41354
O         42.39326        40.01402         1.75897
H         43.11213        40.42950         2.27975
O         43.87178        42.16531        -1.88484
H         43.41233        41.31115        -2.05740
O         41.77160        39.72852        -1.83528
H         41.08172        39.19743        -2.29825
O         51.32875        22.60804        -2.24115
H         50.50716        22.15081        -2.52026
O         36.66435        25.18382         2.72896
H         35.75504        25.39132         3.06218
O         49.21108        31.07949         2.15641
H         48.47169        30.63819         2.62410
O         47.61932        50.26713        -2.72535
H         46.73481        49.93540        -2.99382
O         55.32394        40.33815         2.05518
H         55.30902        39.41347         2.38504
O         58.75492        33.45877        -1.96892
H         58.77275        32.48293        -2.07141
O         49.02718        47.90989        -2.62562
H         48.77164        48.79846        -2.98124
O         27.65017        45.59260         1.80613
H         27.75214        46.42539         2.31617
O         33.92042        25.22408         2.67955
H         33.66113        24.31863         2.95989
O         37.62564        19.50283        -2.38572
H         38.36576        20.12828        -2.54313
O         53.85499        33.41346         2.51538
H         54.36889        34.12901         2.95918
O         41.61057        43.93799         1.87900
H         40.84804        43.43604         2.23932
O         31.46423        21.65251         1.90384
H         32.26088        21.09381         2.04039
O         53.87643        26.48335         2.23787
H         53.85838        27.39031         2.61197
O         49.90005        31.52025        -1.40916
H         50.64910        31.93975        -1.88139
O         41.50386        20.54558         1.77077
H         42.34386        20.87172         2.15959
H         22.10290        26.78416        -0.95377
H         22.16346        29.21169        -1.23992
H         22.18002        31.10458        -1.36742
H         22.19058        33.52589        -1.45633
H         22.15950        35.39667        -1.38656
H         22.07998        37.82112        -1.15582
H         21.96659        39.77744        -0.97917
H         21.97523        42.19609        -0.72539
H         22.03533        44.17509        -0.99335
H         22.18274        46.60216        -1.19637
H         25.31348        23.43650         0.12957
H         23.24667        24.66149        -0.27819
H         25.53659        49.93666        -0.50383
H         23.44908        48.72933        -0.99494
H         26.95881        22.48756         0.15573
H         27.09029        50.83352         0.20044
H         29.09251        21.27716         0.29413
H         29.13048        52.01977         0.77718
H         32.93711        19.53302        -1.11814
H         30.80067        20.77112        -0.98083
H         32.93104        54.15969         0.79501
H         30.80623        53.01991         0.78538
H         34.46718        18.11948        -0.18834
H         34.54218        55.08939         1.13177
H         36.47173        17.16116        -1.12624
H         36.61421        56.30542         0.83074
H         40.29979        15.15951        -1.92162
H         38.15993        16.36816        -1.70242
H         40.31535        58.46461         0.08236
H         38.21387        57.25648         0.46786
H         42.75360        15.12815        -1.86004
H         42.74772        58.46015        -0.33781
H         44.89300        16.28404        -1.54542
H         44.85573        57.24217        -0.66585
H         48.64727        18.33605        -1.04854
H         46.53757        17.18657        -1.29948
H         48.56564        55.04843        -1.08367
H         46.47295        56.27874        -0.94313
H         50.31360        19.19957        -0.27630
H         50.13924        54.12486        -0.40878
H         52.38261        20.42737        -0.53970
H         52.24107        52.92293        -0.18910
H         56.08990        22.63994        -0.46078
H         53.98676        21.47725        -0.90090
H         55.98901        50.81235        -0.20289
H         53.88583        52.01065        -0.26013
H         57.68911        23.48367         0.28269
H         57.63094        49.87914        -0.33846
H         59.81292        24.73300         0.33855
H         61.05102        26.88145         0.27408
H         61.05387        29.33639         0.21731
H         60.99863        31.28426         0.55710
H         60.95461        33.68255         0.09658
H         60.81447        35.40690        -1.05733
H         60.86599        37.85518        -0.99041
H         60.94185        39.73214        -0.71572
H         60.95887        42.15587        -0.63448
H         60.99213        44.03943        -0.34848
H         60.97856        46.49726        -0.36784
H         59.74729        48.63750        -0.36572
