         290
 CSIRO Nanostructure Databank - Neutral Graphene Oxide Data Set
C          1.13709         2.21398         0.75896
C          1.05062         3.50348         0.37112
C          2.36994         1.46811         0.64810
C          2.18438         4.26590        -0.27740
C          1.58801         6.28031         1.27475
C          1.47298         7.60578         1.11174
C          2.66558         5.44066         0.63123
C          2.30661         8.36122         0.10211
C          1.23637        10.60743         0.38912
C          1.20489        11.96753         0.50045
C          2.45243         9.85161         0.34072
C          2.47282        12.69195         0.87389
C          1.30112        14.95504         0.42557
C          1.31939        16.29384         0.15192
C          2.50639        14.21463         0.68829
C          2.47442        17.09649         0.53656
C          2.63118        18.47563         0.03004
C          3.47602         2.01086         0.06242
C          3.41506         3.34173        -0.66536
C          4.73944         1.29817         0.03248
C          4.74047         4.06850        -0.52045
C          3.66025         6.29465        -0.12486
C          3.61839         7.64961        -0.14710
C          4.72961         5.52528        -0.87960
C          4.75831         8.44867        -0.67724
C          3.68340        10.53355         0.13620
C          3.65162        12.05697         0.09472
C          4.82303         9.89815        -0.36601
C          4.99653        12.68932         0.51778
C          3.72519        14.88003         0.73767
C          3.75831        16.33400         0.92848
C          4.98572        14.22357         0.20465
C          5.08703        17.09917         1.05733
C          3.83973        19.06821        -0.07958
C          5.08983        18.45311         0.34879
C          5.92551         1.94640        -0.17076
C          5.90995         3.39860        -0.32803
C          7.21471         1.16928        -0.33683
C          7.15904         4.14311        -0.00913
C          6.05499         6.22480        -0.75332
C          6.00820         7.67541        -1.05208
C          7.20404         5.59427        -0.35620
C          7.31116         8.40240        -1.11956
C          6.00055        10.72803        -0.89929
C          6.18045        12.01198        -0.11525
C          7.31015         9.91224        -1.01260
C          7.46154        12.68075         0.08662
C          6.27834        14.93998         0.55693
C          6.33059        16.29576         0.71002
C          7.53721        14.15850         0.45868
C          7.57623        17.04290         0.51025
C          6.26126        19.12553         0.22103
C          7.54802        18.54388         0.76509
C          8.49716         1.91422        -0.00598
C          8.42111         3.37597         0.29284
C          9.68002         1.25848        -0.02386
C          9.72410         4.14206         0.33079
C          8.47064         6.32618        -0.32864
C          8.52725         7.63021        -0.75428
C          9.72693         5.61977         0.07543
C          9.77553         8.41613        -0.63618
C          8.62983        10.54959        -0.66411
C          8.73427        11.98041        -0.29113
C          9.81458         9.80187        -1.27204
C          9.89028        12.78394        -0.84142
C          8.86628        14.92873         0.32177
C          8.68974        16.41423         0.02601
C          9.87262        14.27480        -0.62082
C          9.82251        17.21251        -0.53167
C          8.78308        19.27319         0.29523
C          9.86983        18.65887        -0.20675
C         10.94995         1.89693         0.51003
C         11.00786         3.37216         0.04063
C         12.27053         1.23177         0.16906
C         12.25009         4.08657         0.63368
C         11.05678         6.23284        -0.36047
C         11.03555         7.74429        -0.24581
C         12.25976         5.60032         0.34826
C         12.32261         8.50248        -0.38991
C         11.13545        10.51287        -1.01533
C         11.14073        11.98225        -1.34103
C         12.32286         9.85601        -0.97539
C         12.43431        12.44369        -0.73454
C         11.11790        15.08075        -0.80989
C         11.08022        16.53925        -1.03867
C         12.31987        14.54848        -0.50648
C         12.40673        17.22782        -0.87510
C         11.07902        19.42660        -0.70140
C         12.39925        18.67359        -0.59693
C         13.49578         1.94836         0.16213
C         13.51236         3.37092         0.23187
C         14.75992         1.27649         0.05841
C         14.77190         4.09768         0.01574
C         13.55106         6.34361         0.23260
C         13.59560         7.79403        -0.15717
C         14.80769         5.58934        -0.02805
C         14.89782         8.45331        -0.42565
C         13.68019        10.47279        -1.40146
C         13.66763        11.96321        -1.06481
C         14.89725         9.79566        -0.76560
C         14.85816        12.79713        -0.89280
C         13.60928        15.02860        -1.10276
C         13.58255        16.52060        -0.80317
C         14.85569        14.17706        -0.79006
C         14.85730        17.18602        -0.36750
C         13.56828        19.34577        -0.42886
C         14.88244        18.67871        -0.78048
C         16.01118         1.95157         0.17445
C         16.05397         3.40984         0.23080
C         17.20350         1.23785         0.17390
C         17.22850         4.13718         0.42604
C         16.07907         6.33223         0.16056
C         16.07093         7.72356        -0.01392
C         17.27740         5.58271         0.40250
C         17.31268         8.49789         0.33821
C         16.05901        10.67468        -0.33151
C         16.11528        11.98151        -1.17520
C         17.36494         9.90648        -0.23176
C         17.44292        12.74255        -1.04303
C         16.15374        14.92047        -0.47911
C         16.10088        16.42709        -0.88990
C         17.46071        14.27798        -1.05413
C         17.33596        17.13656        -0.38147
C         16.12401        19.30169        -0.22787
C         17.31607        18.54842        -0.10517
C         18.54278         1.86550         0.42635
C         18.49153         3.38544         0.68181
C         19.53723         1.58851        -0.68972
C         19.80980         4.09817         0.68742
C         18.53638         6.30158         0.36043
C         18.54931         7.66004         0.12243
C         19.89009         5.61938         0.57127
C         19.75561         8.37814        -0.44410
C         18.54899        10.56002        -0.24691
C         18.66446        11.99336        -0.62478
C         19.78862         9.79991         0.07901
C         19.88504        12.74712        -0.17320
C         18.60394        14.87656        -0.22724
C         18.65277        16.39837        -0.26940
C         19.68296        14.17604         0.21456
C         19.41798        17.04451         0.90531
C         18.51388        19.22563         0.26651
C         19.79944        18.50416         0.54046
C         20.70262         2.24450        -0.72586
C         21.06513         3.24852         0.36704
C         22.24929         4.07417        -0.06430
C         20.90280         6.12663        -0.48974
C         21.04351         7.62308        -0.28742
C         22.19457         5.35567        -0.43759
C         22.23943         8.31872        -0.12066
C         21.10148        10.50203         0.28058
C         21.12387        12.01036         0.24045
C         22.30731         9.70794         0.03602
C         22.11540        12.73456         1.07819
C         20.69079        14.76989         1.15168
C         20.56022        16.23369         1.50876
C         21.94103        14.01873         1.43085
C         21.58472        17.01040         2.21983
C         20.49532        19.13553         1.71113
C         21.39859        18.37668         2.44127
O         21.01464        12.56996        -1.11193
O         20.29050         9.97778         1.42374
O          9.78182         9.78788        -2.66529
O          2.83815        16.84663         1.94269
O         20.02505        15.16867         2.41154
O          5.07793         8.11736        -2.10163
O          7.54637         3.79408         1.37958
O          9.79552         5.08492         1.43884
O          7.42280         9.25060        -2.30524
O          8.95301        10.92245         0.70607
O         12.86073         6.23377         1.51161
O         12.97994         8.60003         0.93133
O         12.35545        13.40074         0.27123
O         18.38920        12.23466        -2.05547
O         19.15388         3.74129         1.95219
O         10.20985         8.34385         0.77924
O          7.63734        13.17949         1.54866
O         14.73902         4.86959        -1.31119
O          9.33812        13.70473        -1.84582
O         10.10019        17.02920        -1.99361
O         16.35665        14.85134         0.95232
H         15.71034        15.45954         1.38442
O          5.12312        12.53645         1.95853
H          6.06471        12.75965         2.19072
O          4.93339        14.42970        -1.23167
H          4.17902        13.88432        -1.57766
O         20.40017         6.09108         1.83531
H         20.01388         5.51960         2.53595
O          3.38047        12.35655        -1.30370
H          4.04715        11.86507        -1.85597
O          7.54761        18.73349         2.20693
H          6.73872        18.28579         2.56719
O         14.95548        18.81879        -2.24776
H         14.04214        18.75318        -2.60213
O         11.24254         6.00107        -1.77566
H         11.24053         5.02298        -1.94187
O         13.45891        14.92533        -2.55277
H         14.32072        15.20161        -2.94240
O         11.21438        12.05593        -2.77707
H         10.59780        11.33530        -3.10347
O         19.06875         1.21536         1.62512
H         18.61682         1.62083         2.39666
O         17.18980         8.73227         1.79415
H         17.21025         7.85884         2.24177
O         10.82201         1.77834         1.94695
H         11.47941         2.40103         2.35452
O         11.13356         3.33199        -1.40542
H         11.85777         2.70814        -1.63415
O         19.49153         8.49993        -1.88072
H         19.47125         7.57794        -2.23501
O         10.88020        19.69416        -2.10387
H         10.57511        18.84553        -2.50914
O          4.34414         5.55479        -2.29463
H          4.39583         6.50126        -2.58437
O          5.62638        11.10538        -2.27401
H          5.97257        10.38972        -2.86416
O          9.50407        14.92614         1.62749
H          9.14015        14.15790         2.12933
O         16.03549        16.45176        -2.33296
H         15.87720        17.39134        -2.61109
O         15.98565        11.61371        -2.56090
H         16.88801        11.41337        -2.90055
O          2.56479        12.45032         2.29627
H          3.49257        12.64106         2.58277
O         19.32122        16.63035        -1.55557
H         18.78496        16.11454        -2.21918
O          5.23277        17.37669         2.48525
H          4.31742        17.52879         2.82759
O          1.57175         8.28219        -1.16308
H          2.18258         8.54405        -1.88405
O         18.45032        17.18920         1.97257
H         18.40952        16.32495         2.44421
O         17.67804        14.66811        -2.42474
H         18.19020        13.93487        -2.84265
O          3.41188         4.80202         1.69988
H          3.72699         5.49122         2.32092
O          1.66893         4.87013        -1.47113
H          1.70232         4.17777        -2.17044
O         21.47767         2.51582         1.52852
H         20.71661         1.93462         1.78709
O         13.72690        10.22071        -2.82119
H         13.02769        10.77691        -3.23487
O         12.18269         3.96654         2.08554
H         11.49421         4.60642         2.39038
O         14.88833        17.13493         1.08376
H         14.11602        17.63598         1.42279
O          7.30412         0.75580        -1.71551
H          6.42124         0.43746        -1.99615
O          3.28244         3.01197        -2.08005
H          3.69595         3.75905        -2.57685
O         20.28977         5.88073        -1.79595
H         21.00001         5.90353        -2.47167
O         15.75895        11.08805         1.02843
H         15.91285        10.31539         1.62182
O         20.70498        18.60414        -0.58579
H         20.33377        18.06678        -1.32675
H          0.26625         1.71410         1.20848
H          0.10203         4.04961         0.48732
H          2.42082         0.46399         1.09505
H          0.93370         5.76591         1.99643
H          0.69280         8.16212         1.65422
H          0.29499        10.04985         0.27155
H          0.23300        12.48084         0.51822
H          0.37484        14.39522         0.23557
H          0.45062        16.78767        -0.30693
H          1.73071        18.99132        -0.33617
H          4.73467         0.21715         0.24914
H          3.91003        20.07893        -0.51045
H          7.16115         0.24386         0.31094
H          6.26817        20.13653        -0.21725
H          9.69625         0.18437        -0.26617
H          8.80921        20.35778         0.48707
H         12.31276         0.13123         0.17512
H         11.16125        20.41126        -0.17724
H         14.76880         0.17921        -0.01929
H         13.55758        20.43754        -0.28181
H         17.17803         0.14008         0.10538
H         16.14114        20.37893        -0.00630
H         19.28984         0.82787        -1.44547
H         18.50216        20.32630         0.30472
H         21.44295         2.02388        -1.51032
H         23.21663         3.54890        -0.06026
H         23.11682         5.85996        -0.76578
H         23.19159         7.76721        -0.15001
H         23.28460        10.21031         0.00860
H         23.02535        12.19555         1.38184
H         22.69830        14.51830         2.05229
H         22.35246        16.46935         2.79081
H         20.35471        20.20357         1.92938
H         22.03281        18.87559         3.18992
