         424
 CSIRO Nanostructure Databank - Neutral Graphene Oxide Data Set
C          1.35039         3.46041         0.39509
C          0.11290         4.17245         0.39472
C          1.30086         6.35414         0.26536
C          0.04261         5.53758         0.41075
C          1.26939         7.79182         0.75950
C          0.07630         8.50189         0.90583
C          1.26956        10.62481         1.16079
C          0.07017         9.88345         1.11256
C          1.26212        12.09241         1.15925
C          0.04861        12.81393         1.21458
C          1.20970        14.92716         0.84087
C          0.02836        14.19230         1.08567
C          1.18467        16.37585         0.72983
C          0.01948        17.12457         0.73704
C          1.13963        19.23430         0.15482
C         -0.00355        18.51899         0.46490
C          1.14085        20.63957        -0.22813
C         -0.05444        21.35178        -0.37439
C          1.13815        23.45929        -0.63551
C         -0.05319        22.73441        -0.59489
C          1.06088        24.95282        -0.88035
C          0.06269        25.63263         0.03958
C          1.09957        27.78260        -0.59043
C          0.08931        26.96045         0.19511
C          1.22139        29.21771        -0.12133
C          0.05303        29.93547         0.15274
C          1.30852        32.00790         0.43983
C          0.08850        31.29571         0.45136
C          1.34413        33.43949         0.74540
C          0.30143        34.12040         1.31735
C          1.49833        36.26258         1.36020
C          0.33917        35.54792         1.52335
C          1.60294        37.68643         1.56400
C          3.81217         3.49188         0.68586
C          2.56299         4.13341         0.58741
C          3.78237         6.36253         0.96396
C          2.49030         5.59663         0.82322
C          3.76295         7.81946         0.80936
C          2.50371         8.50341         0.87826
C          3.77142        10.61748         1.19676
C          2.48862         9.91239         1.07924
C          3.76449        12.14059         1.10404
C          2.46152        12.82241         0.97096
C          3.68753        14.91405         0.42886
C          2.44391        14.22248         0.75835
C          3.69240        16.31433         0.28873
C          2.47134        17.07522         0.60530
C          3.61219        19.14373        -0.44700
C          2.44244        18.56801         0.31650
C          3.62775        20.65134        -0.39475
C          2.38916        21.34641        -0.38116
C          3.62075        23.48197        -0.67911
C          2.37749        22.77159        -0.54685
C          3.64236        24.90505        -0.81489
C          2.39536        25.66585        -0.76761
C          3.73296        27.69925        -0.32992
C          2.40943        27.01768        -0.59773
C          3.69460        29.20091        -0.40592
C          2.47028        29.90511        -0.13326
C          3.83104        31.99502         0.20398
C          2.49177        31.31108         0.10792
C          3.80128        33.49112         0.03134
C          2.51587        34.25803         0.24335
C          3.91617        36.30315         0.58052
C          2.76752        35.48069         1.11645
C          3.95794        37.70270         0.82627
C          2.76721        38.36201         1.33987
C          6.29166         3.53241         0.81951
C          5.03104         4.21375         0.78573
C          6.25392         6.36107         0.67881
C          5.04396         5.63267         0.82354
C          6.25001         7.78352         0.65846
C          5.00064         8.52059         0.76139
C          6.31058        10.67519         1.04243
C          5.01672         9.91558         0.89055
C          6.20481        12.08751         0.50219
C          4.98828        12.80241         0.59257
C          6.09208        14.86080        -0.34266
C          4.89609        14.16779         0.25487
C          6.11791        16.32763        -0.01966
C          4.92741        17.04393         0.08745
C          6.09653        19.20935        -0.24523
C          4.92298        18.48823        -0.08076
C          6.09493        20.62231        -0.56129
C          4.84891        21.33957        -0.55783
C          6.08027        23.46061        -0.89071
C          4.84668        22.76776        -0.69363
C          6.08810        24.89172        -1.02988
C          4.85886        25.58713        -0.98266
C          6.13794        27.78488        -1.11266
C          4.80852        27.08148        -1.22641
C          6.13995        29.19281        -1.00682
C          4.90819        29.89955        -0.63861
C          6.09981        32.03700        -1.00628
C          4.92242        31.29543        -0.55745
C          6.12335        33.54448        -0.83428
C          4.93859        34.19915        -0.22779
C          6.23234        36.33541        -0.20740
C          5.00870        35.63919         0.01308
C          6.27502        37.74313         0.03298
C          5.12009        38.41375         0.51357
C          8.77534         3.47873         0.98702
C          7.48289         4.22181         0.77090
C          8.69770         6.34436         0.31704
C          7.49936         5.64784         0.59909
C          8.68025         7.77337         0.19005
C          7.47250         8.49793         0.47828
C          8.67148        10.60764         0.15152
C          7.49504         9.91538         0.49428
C          8.65979        12.04322         0.03893
C          7.41660        12.76360         0.13546
C          8.62654        14.85928        -0.27068
C          7.40282        14.15441        -0.10755
C          8.64113        16.29432        -0.24697
C          7.40061        17.00548         0.07089
C          8.62230        19.18956        -0.50194
C          7.39431        18.55206        -0.03262
C          8.58667        20.59969        -0.82084
C          7.30862        21.31570        -0.79905
C          8.50598        23.45225        -1.35973
C          7.28150        22.71887        -1.01054
C          8.55067        24.91509        -1.20985
C          7.32878        25.61502        -1.14704
C          8.60168        27.72795        -1.32955
C          7.35336        27.05271        -1.20536
C          8.56347        29.18885        -1.69465
C          7.34932        29.91318        -1.17569
C          8.59973        32.04941        -1.21100
C          7.38586        31.32421        -1.13228
C          8.61121        33.49242        -1.10511
C          7.41460        34.22410        -0.84315
C          8.61623        36.37161        -0.80131
C          7.43064        35.63924        -0.59772
C          8.62156        37.77989        -0.65175
C          7.48363        38.44954        -0.22141
C         11.21592         3.58926         0.59545
C         10.00864         4.24962         0.58291
C         11.13256         6.30877        -0.17752
C          9.95484         5.63692         0.22528
C         11.00689         7.70385        -0.76133
C          9.85508         8.47538        -0.16286
C         11.07658        10.59740        -0.50817
C          9.86843         9.88171        -0.17234
C         11.05714        11.98582        -0.57210
C          9.85065        12.72081        -0.31503
C         11.08844        14.87625        -0.52112
C          9.85296        14.15098        -0.39397
C         11.07956        16.30652        -0.48032
C          9.83643        17.01447        -0.37158
C         11.06484        19.12467        -0.75282
C          9.82592        18.45747        -0.52037
C         11.07389        20.54437        -1.23637
C          9.77572        21.26419        -1.04534
C         11.03834        23.45383        -1.03264
C          9.81606        22.70457        -1.34507
C         11.03200        24.86514        -1.07363
C          9.79798        25.58918        -1.21312
C         11.09638        27.70323        -1.39511
C          9.81972        27.02360        -1.29667
C         11.09791        29.17582        -1.62266
C          9.85005        29.93247        -1.44297
C         11.10381        32.05083        -1.17562
C          9.85600        31.32114        -1.31674
C         11.07631        33.47837        -1.05811
C          9.85155        34.18807        -1.12825
C         11.10810        36.35690        -0.83592
C          9.85431        35.68452        -1.33271
C         11.10462        37.75512        -0.64966
C          9.87136        38.53564        -1.03346
C         13.64279         3.57630         0.29229
C         12.42685         4.25933         0.25002
C         13.59625         6.28685        -0.56224
C         12.37520         5.63518        -0.17800
C         13.52166         7.64757        -1.22904
C         12.31466         8.47218        -0.79248
C         13.54816        10.62751        -0.92912
C         12.31381         9.84604        -0.76276
C         13.54634        11.99036        -0.93316
C         12.24898        12.73735        -1.11057
C         13.54158        14.88926        -0.67515
C         12.30896        14.18697        -0.69231
C         13.53794        16.31785        -0.54470
C         12.30182        17.01936        -0.53518
C         13.52219        19.19899        -0.61109
C         12.28535        18.45535        -0.63950
C         13.49228        20.61074        -0.54846
C         12.26206        21.33118        -0.73429
C         13.37682        23.50060        -0.13879
C         12.21056        22.72049        -0.67863
C         13.47156        24.90851        -0.69746
C         12.28405        25.59273        -0.99481
C         13.63514        27.70281        -1.48506
C         12.29297        27.01447        -1.25125
C         13.63103        29.17650        -1.12701
C         12.40607        29.92959        -1.44761
C         13.55347        32.04293        -0.83850
C         12.34513        31.36776        -1.13030
C         13.51947        33.47003        -0.66951
C         12.30197        34.18240        -0.81275
C         13.48474        36.28332        -0.23860
C         12.29289        35.60945        -0.63087
C         13.44310        37.68961         0.05343
C         12.24081        38.40689        -0.17714
C         16.04692         3.49979        -0.09907
C         14.85493         4.21181        -0.09198
C         16.08114         6.30132        -0.68024
C         14.80881         5.60683        -0.51049
C         16.10064         7.71978        -0.80896
C         14.84729         8.41970        -1.18695
C         16.09449        10.64544        -0.84553
C         14.83573         9.91148        -1.11943
C         16.07741        12.03005        -0.84568
C         14.81469        12.76309        -1.23322
C         15.99859        14.89079        -0.57184
C         14.79449        14.20381        -0.77296
C         15.99708        16.32698        -0.41724
C         14.76829        17.03960        -0.48199
C         15.98342        19.17270        -0.35745
C         14.76829        18.47755        -0.48091
C         16.02819        20.66624        -0.58537
C         14.70558        21.36258        -0.34772
C         15.88253        23.48601        -0.04215
C         14.66576        22.73476        -0.20126
C         15.93026        24.83368        -0.31320
C         14.73926        25.58328        -0.67485
C         16.03464        27.68779        -0.62857
C         14.81890        26.96696        -0.89770
C         16.03955        29.12878        -0.58718
C         14.78702        29.85054        -0.78937
C         15.99996        31.98576        -0.50431
C         14.79459        31.30808        -0.69471
C         15.99545        33.46001        -0.51492
C         14.72494        34.18506        -0.41332
C         15.91927        36.25881         0.29213
C         14.71859        35.57197        -0.15797
C         15.80100        37.63123         0.78300
C         14.57778        38.32524         0.59094
C         18.54555         3.43508        -0.19860
C         17.28802         4.09404        -0.68893
C         18.50835         6.30048        -0.36776
C         17.28960         5.59643        -0.54578
C         18.51479         7.72827        -0.37517
C         17.29641         8.43972        -0.62422
C         18.52569        10.57710        -0.50207
C         17.32594         9.89332        -0.66786
C         18.59648        12.05142        -0.82923
C         17.28776        12.78534        -0.66548
C         18.49250        14.91363        -0.29075
C         17.26169        14.17357        -0.53775
C         18.46112        16.32754        -0.14074
C         17.21562        17.04124        -0.23916
C         18.40931        19.19247         0.12760
C         17.20439        18.46966        -0.17414
C         18.35965        20.62229         0.36083
C         17.18157        21.33053         0.11103
C         18.33162        23.49590         0.58150
C         17.02993        22.74831         0.59403
C         18.41349        24.80462         0.17911
C         17.26757        25.48508        -0.54312
C         18.44673        27.66272        -0.13980
C         17.23301        26.98140        -0.35819
C         18.45670        29.09645        -0.13791
C         17.23488        29.82548        -0.34659
C         18.44720        31.97396        -0.09241
C         17.26168        31.29046        -0.31545
C         18.56443        33.48118         0.06630
C         17.25200        34.21542        -0.13870
C         18.30090        36.16097         1.07160
C         17.11597        35.57175         0.41372
C         18.13052        37.58636         1.68131
C         16.83633        38.22818         1.49924
C         19.67318         4.13544         0.03306
C         20.90031         6.28898         0.12169
C         19.71442         5.58090        -0.09174
C         20.91579         7.68462         0.07632
C         19.74205         8.42436        -0.15362
C         20.88192        10.61748         0.13527
C         19.74999         9.87847        -0.19044
C         20.85965        12.03874         0.18924
C         19.76456        12.76573        -0.20916
C         20.90300        14.95474         0.08811
C         19.72425        14.22024        -0.14068
C         20.87656        16.33718         0.20955
C         19.66504        17.04667         0.12842
C         20.74403        19.18410         0.82362
C         19.62092        18.48480         0.34329
C         20.68192        20.55475         1.10394
C         19.52687        21.29162         0.87479
C         20.79162        23.48059         0.99840
C         19.48850        22.77163         1.23000
C         20.84300        24.77786         0.60555
C         19.66100        25.52394         0.26060
C         20.89076        27.66956         0.15954
C         19.68248        26.93489         0.06814
C         20.88430        29.05424         0.14294
C         19.68159        29.77185         0.03714
C         20.22572        31.63942         1.53064
C         19.76438        31.26730         0.12978
C         20.00673        32.88401         2.05068
C         19.25785        33.87792         1.35903
C         20.11981        35.76659         2.71578
C         19.26062        35.24556         1.73342
C         19.98198        37.07983         3.22692
C         18.98964        37.93402         2.81072
O          9.15718        23.02493        -2.62832
O          7.52520        17.87399         1.25267
O          2.93378         5.96699         2.14492
O          5.80133        32.93764        -2.15210
O          3.90498        11.48828         2.41410
O         11.88398        29.60079        -2.80521
O         16.86647        34.09594        -1.54970
O         18.85926        37.31796         0.42183
O          2.72586        18.10198         1.65573
O         14.96273         9.21726        -2.43800
O         16.61547        22.62637         2.01170
H         17.44449        22.46764         2.53425
O          0.56460        25.13156        -2.25043
H          1.23673        24.75722        -2.85849
O          9.83093        35.90204        -2.80486
H          9.03365        35.44641        -3.15223
O          8.40752        29.19047        -3.17141
H          8.42226        30.12718        -3.46437
O          3.35057        18.78424        -1.84953
H          4.07657        19.15426        -2.39510
O         14.85335        12.84662        -2.71541
H         14.97794        11.93110        -3.05051
O          6.55707        10.78830         2.49177
H          5.72518        11.15669         2.88073
O         18.85820        12.08419        -2.29244
H         18.12112        11.60423        -2.72773
O         19.43436        33.98976        -0.99811
H         18.86752        34.05544        -1.80224
O         17.53202        25.27741        -1.97552
H         18.32883        25.79978        -2.20796
O         20.76684        31.69779        -0.82470
H         20.62411        32.66583        -0.98175
O          5.88438        14.79813        -1.82186
H          5.93462        13.85209        -2.07813
O         13.83575        27.66280        -2.93976
H         13.15098        28.26396        -3.32649
O         11.25124        20.44704        -2.70627
H         10.92961        21.28893        -3.09791
O         16.29249        20.82156        -2.03288
H         15.55065        20.39458        -2.51270
O         19.24855        22.80015         2.70064
H         19.36046        23.73169         2.98905
O          4.10943        27.38150         1.04948
H          3.36525        27.63706         1.63364
O          1.56763         6.45766        -1.17882
H          0.75141         6.78527        -1.61176
O          2.12618        34.75844        -1.06985
H          2.02362        33.99193        -1.67175
O          3.20521        34.99704         2.42002
H          3.35508        35.77705         2.99362
O          4.25476        31.82284         1.62553
H          4.19040        30.86509         1.83073
O         13.28130         7.32343        -2.64198
H         13.66793         8.07420        -3.15638
O         12.05973        12.78752        -2.57272
H         12.92424        13.07994        -2.95382
O          9.87703        38.72169        -2.46187
H          9.90801        37.81978        -2.86733
O          4.36727        27.27749        -2.60200
H          5.11779        27.06446        -3.19540
O         13.09453        23.68263         1.30468
H         13.95908        23.76571         1.76301
O         10.62308         7.50219        -2.16649
H         11.45433         7.24608        -2.64308
O         17.22144         3.80979        -2.14202
H         16.40914         4.24272        -2.48244
O          8.75201         2.19975         0.33620
H          8.71883         2.35133        -0.63045
O          0.61887        27.87657        -1.95969
H          0.49390        26.94876        -2.28700
H          1.34170         2.36505         0.30473
H         -0.81924         3.58784         0.38585
H         -0.93913         6.03177         0.37644
H         -0.88849         7.98055         0.83423
H         -0.90022        10.38991         1.19433
H         -0.90107        12.29020         1.38423
H         -0.93421        14.71363         1.17011
H         -0.95034        16.62869         0.88090
H         -0.98761        19.00675         0.42666
H         -1.01954        20.83213        -0.30558
H         -1.01110        23.25757        -0.72280
H         -0.67648        25.01614         0.57304
H         -0.63723        27.46061         0.85340
H         -0.91922        29.42483         0.11423
H         -0.85238        31.82170         0.66220
H         -0.61252        33.58893         1.62190
H         -0.58892        36.05823         1.82266
H          0.70552        38.23446         1.89034
H          3.85638         2.39569         0.60109
H          2.81030        39.44939         1.50094
H          6.30737         2.43572         0.90168
H          5.15785        39.50180         0.67192
H          8.85427         3.26003         2.09021
H          7.50924        39.54066        -0.08259
H         11.25303         2.52619         0.87401
H          9.88033        39.54993        -0.56242
H         13.66534         2.52174         0.60351
H         12.21937        39.49266        -0.00218
H         16.04223         2.43579         0.18201
H         14.51336        39.38263         0.88691
H         18.53670         2.33977        -0.09487
H         16.64650        39.18093         2.01686
H         20.59421         3.62186         0.34857
H         21.82991         5.74051         0.33110
H         21.87170         8.20153         0.23376
H         21.81103        10.11207         0.42929
H         21.75061        12.54323         0.58869
H         21.86940        14.43846         0.15783
H         21.82388        16.86744         0.37169
H         21.68391        18.65579         1.02872
H         21.57534        21.03830         1.52106
H         21.72774        22.96558         1.25505
H         21.82564        25.26472         0.53407
H         21.84989        27.14573         0.26138
H         21.82862        29.60993         0.21816
H         20.76538        30.88702         2.12612
H         20.42565        33.12844         3.03869
H         20.88709        35.11757         3.15871
H         20.64289        37.38638         4.05056
H         18.79554        38.87117         3.35230
