         640
 CSIRO Nanostructure Databank - Neutral Graphene Oxide Data Set
C         22.94592        27.32958         0.35704
C         22.93883        28.67310         0.37941
C         22.98044        31.68595         0.30276
C         23.00215        33.07162         0.27770
C         23.03128        35.99261        -0.02461
C         23.04884        37.36237        -0.20212
C         23.06260        40.24566        -0.65766
C         23.07395        41.61466        -0.81998
C         23.07887        44.52088        -1.04714
C         23.08585        45.89574        -1.05733
C         25.29616        24.50204         0.56461
C         24.13434        25.12854         0.26668
C         25.40114        27.25824        -0.04667
C         24.08982        26.53669        -0.25093
C         25.40931        28.70154        -0.27945
C         24.08080        29.47297        -0.12319
C         25.39516        31.61156        -0.04565
C         24.15267        30.93389         0.08404
C         25.41935        33.04592        -0.04861
C         24.20531        33.78478         0.05976
C         25.45494        35.91537        -0.26959
C         24.22331        35.22922        -0.06403
C         25.48008        37.33738        -0.45520
C         24.25600        38.06936        -0.43162
C         25.50129        40.18874        -0.81605
C         24.26579        39.49842        -0.63204
C         25.51655        41.61032        -0.99646
C         24.28616        42.33390        -0.97336
C         25.53197        44.46478        -1.12981
C         24.29084        43.77155        -1.06415
C         25.54403        45.89414        -1.10086
C         24.31392        46.61260        -1.06203
C         25.52971        48.71701        -1.01327
C         24.33386        48.03011        -1.02895
C         27.86223        23.03685         0.77959
C         27.80848        24.45150         0.58506
C         26.58095        25.15942         0.46369
C         27.84781        27.30345         0.23970
C         26.58956        26.57886         0.22363
C         27.85610        28.72968         0.12304
C         26.65311        29.45704        -0.07576
C         27.87809        31.58614         0.01229
C         26.63423        30.87095        -0.06608
C         27.88634        33.01381        -0.11319
C         26.66370        33.74644        -0.17540
C         27.89951        35.87192        -0.51042
C         26.67882        35.17440        -0.29676
C         27.94050        37.28019        -0.65326
C         26.71984        38.02756        -0.65287
C         27.94615        40.15679        -1.05781
C         26.72904        39.45506        -0.81637
C         27.96584        41.54903        -1.26009
C         26.75769        42.30416        -1.19141
C         27.98509        44.47817        -1.29595
C         26.76810        43.74382        -1.23324
C         28.01364        45.88775        -1.16264
C         26.77806        46.61235        -1.08927
C         28.03328        48.74800        -1.00084
C         26.77394        48.03284        -1.03493
C         28.06334        50.16340        -0.86128
C         30.30197        23.03963         0.67260
C         29.05923        22.36022         0.83345
C         30.28181        24.42964         0.51490
C         29.05621        25.15785         0.48237
C         30.31629        27.30938         0.43484
C         29.05912        26.58537         0.37114
C         30.28855        28.74604         0.45492
C         29.09655        29.44947         0.25847
C         30.33956        31.61693         0.22349
C         29.09621        30.88991         0.16588
C         30.35684        33.03310         0.00956
C         29.13034        33.69553        -0.20014
C         30.48959        35.88285        -0.43095
C         29.13382        35.09889        -0.59012
C         30.41566        37.34905        -0.42196
C         29.20898        37.97277        -0.71354
C         30.53346        40.13333        -1.14401
C         29.19893        39.38577        -1.14090
C         30.52463        41.59613        -1.20437
C         29.24903        42.24043        -1.54452
C         30.52008        44.48244        -1.29827
C         29.25054        43.77548        -1.54858
C         30.48562        45.89749        -1.24253
C         29.26469        46.60206        -1.18490
C         30.50088        48.76868        -1.01251
C         29.25835        48.04327        -1.08319
C         30.49883        50.18809        -0.87405
C         29.25038        50.85854        -0.80106
C         32.83262        20.22115         0.53996
C         31.62875        20.90333         0.52673
C         32.80246        23.00821         0.76472
C         31.58506        22.31229         0.65750
C         32.75651        24.49881         0.99846
C         31.58776        25.13345         0.23341
C         32.80775        27.32231         0.35417
C         31.52350        26.61338         0.47554
C         32.80053        28.80876         0.40430
C         31.53253        29.49153         0.84366
C         32.77597        31.65248         0.55727
C         31.54766        30.94316         0.46027
C         32.76818        33.05241         0.57797
C         31.58145        33.77528         0.23636
C         32.61080        36.02681         0.92998
C         31.60111        35.18204         0.17400
C         32.77299        37.40487         0.30949
C         31.66669        38.06655        -0.22912
C         32.87867        40.22325        -0.45089
C         31.71923        39.46401        -0.59519
C         32.93369        41.61992        -0.72673
C         31.71492        42.32404        -1.04438
C         32.96315        44.47801        -0.86781
C         31.72723        43.76564        -1.13067
C         32.98992        45.89830        -0.94620
C         31.77938        46.63118        -1.45769
C         32.96366        48.77403        -0.95075
C         31.74035        48.07890        -1.05616
C         32.97909        50.20879        -0.88027
C         31.74787        50.91150        -0.83971
C         32.96472        53.02376        -0.72716
C         31.77420        52.33230        -0.76555
C         35.38416        18.77386         0.60064
C         35.33368        20.19538         0.73311
C         34.06729        20.90120         0.66898
C         35.29445        23.04811         0.82722
C         34.04700        22.32298         0.76786
C         35.29557        24.48401         0.77001
C         34.06881        25.19944         0.71073
C         35.29668        27.31401         0.59594
C         34.07876        26.59126         0.56623
C         35.32845        28.80497         0.88172
C         34.05042        29.55624         0.65087
C         35.29586        31.67948         0.77311
C         34.04097        30.92493         0.66862
C         35.27410        33.05092         0.96959
C         33.98143        33.77115         1.03293
C         35.24859        36.02666         1.23707
C         33.93323        35.26863         1.20506
C         35.31455        37.39291         0.66708
C         34.03798        38.13464         0.49495
C         35.37230        40.14763        -0.49382
C         34.09718        39.57004         0.07616
C         35.38766        41.65200        -0.28293
C         34.16584        42.34511        -0.51401
C         35.33472        44.53974        -0.01845
C         34.14309        43.77047        -0.53735
C         35.44448        45.94429        -0.55155
C         34.21079        46.62801        -0.84009
C         35.45877        48.77430        -1.07990
C         34.19493        48.04351        -0.93917
C         35.46879        50.23505        -0.89289
C         34.22907        50.92556        -0.84169
C         35.45795        53.07357        -0.70641
C         34.21214        52.35151        -0.76060
C         35.49591        54.48934        -0.72398
C         37.82089        18.72118         0.72677
C         36.58655        18.07919         0.54730
C         37.80974        20.15271         1.19702
C         36.53506        20.91346         0.89365
C         37.76287        23.08492         0.87303
C         36.52603        22.34264         0.89484
C         37.76444        24.46330         0.70200
C         36.52986        25.19624         0.67426
C         37.76571        27.39949         0.56605
C         36.52000        26.62668         0.62243
C         37.75368        28.75086         0.38100
C         36.47512        29.51808         0.17611
C         37.77152        31.64689         0.72491
C         36.54821        30.96720         0.64113
C         37.79455        33.06266         0.99516
C         36.52849        33.72123         1.49972
C         37.80653        35.93068         0.99800
C         36.54186        35.24843         1.36181
C         37.78579        37.33777         0.78982
C         36.52768        38.02721         0.53356
C         37.86765        40.18833         0.19390
C         36.62151        39.40560        -0.03793
C         37.83939        41.66974         0.15317
C         36.61497        42.36368        -0.07539
C         37.85060        44.49604         0.03067
C         36.63180        43.78473        -0.07871
C         37.88179        45.92002        -0.16237
C         36.67966        46.59437        -0.56135
C         38.08630        48.76782        -0.91997
C         36.76159        48.00261        -1.01677
C         37.93710        50.22471        -0.51898
C         36.70457        50.92179        -0.68286
C         37.90539        53.07198        -0.42621
C         36.68265        52.35654        -0.59924
C         37.91953        54.50405        -0.49035
C         36.69411        55.18037        -0.64568
C         40.32206        15.94259         0.39318
C         39.12593        16.61118         0.51555
C         40.30213        18.76743         0.59843
C         39.07609        18.03373         0.62333
C         40.28543        20.21802         0.69118
C         39.08145        20.89295         0.86308
C         40.35448        23.09821         0.86813
C         39.04799        22.34920         1.04592
C         40.32813        24.52686         0.53961
C         39.00788        25.22210         0.28673
C         40.30207        27.34304         0.26240
C         39.05993        26.65448         0.81004
C         40.27985        28.79095        -0.00567
C         38.98386        29.52915         0.10286
C         40.25067        31.60306         0.56615
C         39.01913        30.96361         0.44342
C         40.26183        33.02775         0.95822
C         38.98891        33.77374         0.97647
C         40.26506        35.92589         0.76699
C         39.02011        35.21570         0.99016
C         40.24178        37.37486         0.75403
C         39.01087        38.05144         0.79223
C         40.27442        40.25056         0.80805
C         38.96106        39.54368         1.01347
C         40.27051        41.64451         0.64537
C         39.03715        42.36877         0.38912
C         40.29830        44.50224         0.45358
C         39.06681        43.78829         0.28520
C         40.31049        45.92455         0.35992
C         39.11342        46.63771         0.00317
C         40.35513        48.76382         0.14340
C         39.16777        48.04299        -0.15428
C         40.35985        50.20960         0.10231
C         39.11654        50.93109        -0.16478
C         40.28133        53.11230         0.26623
C         39.09050        52.34680        -0.13079
C         40.36255        54.53956        -0.09497
C         39.18112        55.22661        -0.43802
C         40.46171        57.28230        -0.69396
C         39.25654        56.61716        -0.73337
C         42.78530        15.97028         0.15673
C         41.54792        16.65677         0.32844
C         42.77723        18.79635         0.30043
C         41.53660        18.07901         0.42177
C         42.77017        20.21931         0.33244
C         41.54340        20.93815         0.53676
C         42.77339        23.06910         0.28690
C         41.57357        22.33984         0.55583
C         42.76434        24.49063         0.21319
C         41.50946        25.20493         0.32847
C         42.74050        27.35805        -0.08732
C         41.48771        26.65858         0.16261
C         42.76332        28.81160        -0.05120
C         41.53411        29.54342         0.13733
C         42.81348        31.62485         0.63839
C         41.50251        30.90855         0.37571
C         42.75590        33.09724         0.35312
C         41.57295        33.82091         0.77310
C         42.64711        35.99599        -0.03128
C         41.47116        35.26015         0.56929
C         42.70604        37.43462         0.42926
C         41.48262        38.09863         0.72974
C         42.73152        40.23208         0.86587
C         41.49050        39.52637         0.83147
C         42.70330        41.64108         0.94487
C         41.50036        42.36144         0.74411
C         42.73694        44.51307         0.87923
C         41.51119        43.79316         0.68868
C         42.71878        45.92280         0.88084
C         41.52807        46.63360         0.58621
C         42.77749        48.78075         0.68072
C         41.53996        48.06767         0.50673
C         42.79095        50.20038         0.56068
C         41.55597        50.89258         0.35648
C         42.84729        53.08165         0.42451
C         41.56397        52.35837         0.51970
C         42.84864        54.49298         0.18506
C         41.61923        55.20208        -0.07589
C         42.91500        57.27225        -0.39287
C         41.66319        56.59385        -0.38107
C         43.96680        16.65862         0.03785
C         45.22504        18.81029        -0.06764
C         44.00078        18.08883         0.08483
C         45.22424        20.22485         0.02663
C         43.99181        20.93411         0.16222
C         45.19909        23.06894        -0.18716
C         43.99443        22.35871         0.09828
C         45.18056        24.48670        -0.29320
C         43.95836        25.19647        -0.10308
C         45.14053        27.34144        -0.73993
C         43.91862        26.63581        -0.22655
C         45.18744        28.82483        -0.46928
C         43.95831        29.52080        -0.20497
C         45.11526        31.66899        -0.39236
C         44.00058        30.96182        -0.03372
C         45.06492        33.16412        -0.59375
C         44.07179        33.81553         0.37570
C         45.13875        35.97505        -0.10876
C         43.98158        35.29712         0.11323
C         45.10244        37.47385        -0.31772
C         43.90772        38.13172         0.33489
C         45.21560        40.19714         0.69828
C         43.97644        39.52011         0.67903
C         45.26536        41.58636         1.16063
C         43.93443        42.36786         1.25574
C         45.21734        44.50106         1.15075
C         43.97148        43.81693         1.11013
C         45.23203        45.91217         1.19624
C         43.92952        46.65049         1.39567
C         45.19642        48.79521         1.13560
C         43.97991        48.09331         0.97418
C         45.19721        50.22045         1.06088
C         44.01381        50.91904         0.77003
C         45.28467        53.08130         0.65256
C         44.03298        52.37116         0.62684
C         45.31230        54.47921         0.37160
C         44.08385        55.19234         0.13112
C         44.08250        56.59301        -0.14735
C         47.63917        18.81638        -0.51749
C         46.46161        18.15557        -0.47235
C         47.74622        20.20532         0.06181
C         46.45081        20.96433        -0.12981
C         47.64454        23.04066        -0.85086
C         46.42777        22.33319        -0.31156
C         47.66384        24.51952        -0.57034
C         46.43621        25.21301        -0.47219
C         47.64822        27.34366        -0.55130
C         46.43633        26.62736        -0.47877
C         47.65785        28.83434        -0.29693
C         46.36108        29.51182        -0.63290
C         47.62089        31.71794        -0.81826
C         46.31662        30.96943        -0.98874
C         47.59390        33.12366        -0.80937
C         46.40700        33.86279        -0.55056
C         47.59722        36.02501        -0.42089
C         46.40707        35.27100        -0.34747
C         47.62531        37.44412        -0.19969
C         46.41617        38.15782        -0.00782
C         47.70156        40.21190         0.43155
C         46.44817        39.52614         0.34792
C         47.77105        41.58344         1.08341
C         46.49225        42.37490         0.99587
C         47.72070        44.50363         1.06388
C         46.47356        43.75712         1.09088
C         47.71494        45.90669         1.22835
C         46.45162        46.63945         1.30251
C         47.64641        48.80165         1.66912
C         46.41549        48.05348         1.37809
C         47.70784        50.24461         1.44712
C         46.40408        50.99906         1.53158
C         47.71720        53.07407         0.98170
C         46.48317        52.39706         0.97821
C         47.73410        54.45465         0.63202
C         46.57116        55.13568         0.35657
C         50.23841        20.31991        -0.28559
C         48.99488        20.96862        -0.32930
C         50.16001        23.07486        -0.77364
C         48.95537        22.34966        -0.57955
C         50.15369        24.53066        -0.77499
C         48.87908        25.23055        -0.67476
C         50.13733        27.37121        -0.97180
C         48.85592        26.64849        -0.65756
C         50.10013        28.86748        -0.78023
C         48.89433        29.56955        -0.74304
C         50.11010        31.69055        -0.90144
C         48.87351        30.99809        -0.83751
C         50.15780        33.14490        -1.32960
C         48.82791        33.88096        -1.13187
C         50.11654        36.06971        -0.69587
C         48.83374        35.35976        -0.85909
C         50.09124        37.44299        -0.49507
C         48.87113        38.15401        -0.23453
C         50.16427        40.27970         0.08685
C         48.89394        39.55333         0.07889
C         50.16500        41.71800         0.35686
C         48.98334        42.38762         0.70669
C         50.17775        44.54296         0.71804
C         48.95924        43.80570         0.83982
C         50.17619        45.95583         0.94309
C         48.95803        46.60756         1.23628
C         50.21404        48.79875         1.41662
C         48.98086        48.02683         1.60528
C         50.19517        50.20803         1.46437
C         48.93154        50.92409         1.43050
C         50.17862        53.04328         1.31425
C         48.94828        52.36145         1.26804
C         51.41591        21.00698        -0.59064
C         52.60895        23.16519        -1.29178
C         51.39465        22.38314        -0.83242
C         52.61704        24.58619        -0.75971
C         51.35966        25.23851        -0.64609
C         52.58546        27.45070        -0.47621
C         51.29834        26.70480        -0.24576
C         52.58774        28.82455        -0.65149
C         51.33435        29.55703        -0.77495
C         52.58592        31.68072        -0.73863
C         51.32955        30.97719        -0.79897
C         52.53755        33.13476        -0.45737
C         51.33507        33.91688        -0.75471
C         52.60485        36.03858        -0.46255
C         51.34867        35.30545        -0.65509
C         52.61692        37.45143        -0.47056
C         51.34987        38.21898        -0.75597
C         52.61445        40.30566        -0.24964
C         51.35015        39.61706        -0.19995
C         52.56598        41.77804        -0.29444
C         51.36086        42.47141         0.17773
C         52.65844        44.58663         0.42015
C         51.39749        43.86065         0.41363
C         52.68121        45.98582         0.75455
C         51.42394        46.69130         0.97638
C         52.71477        48.76674         1.57156
C         51.42225        48.06980         1.22659
C         52.68004        50.27028         1.40210
C         51.44137        50.94998         1.41874
C         51.38451        52.37016         1.39654
C         55.06341        23.15112        -0.86417
C         53.92228        22.46657        -1.09933
C         55.07702        24.58231        -0.64218
C         53.83518        25.26362        -0.55923
C         55.09615        27.45382        -0.46228
C         53.83663        26.70882        -0.10681
C         55.07357        28.86979        -0.59077
C         53.83396        29.56701        -0.67923
C         55.08173        31.74105        -1.01811
C         53.79760        30.99324        -0.74038
C         55.10923        33.17895        -0.57692
C         53.86297        33.88762        -0.30221
C         55.07328        36.04680        -0.43391
C         53.83937        35.34773        -0.41329
C         55.06161        37.46252        -0.35629
C         53.83961        38.16355        -0.37326
C         55.09621        40.34638        -0.36504
C         53.82751        39.62731        -0.34077
C         55.12379        41.77211        -0.31661
C         53.86950        42.54020        -0.33925
C         55.12545        44.60045         0.24140
C         53.87149        43.93454         0.13333
C         55.14637        45.99173         0.58670
C         53.90869        46.66669         0.80626
C         55.17926        48.80954         1.38431
C         53.91350        48.17688         0.83014
C         55.13661        50.27939         1.41638
C         53.93817        50.94403         1.37529
C         57.56713        24.63959        -0.57337
C         56.31901        25.29814        -0.53560
C         57.55075        27.46915        -0.54407
C         56.30640        26.74402        -0.50965
C         57.55270        28.87606        -0.48617
C         56.33021        29.59866        -0.57859
C         57.57587        31.74243        -0.68552
C         56.34206        31.00663        -0.65724
C         57.56171        33.17151        -0.80375
C         56.30863        33.89682        -0.67173
C         57.55136        36.04443        -0.68748
C         56.31844        35.32141        -0.54059
C         57.57075        37.46329        -0.58398
C         56.35153        38.17695        -0.05332
C         57.55259        40.34676        -0.46861
C         56.31864        39.64840        -0.36726
C         57.57142        41.77334        -0.38759
C         56.33828        42.47612        -0.23596
C         57.57721        44.60863        -0.00864
C         56.34415        43.90567        -0.01587
C         57.59298        46.00754         0.30891
C         56.39586        46.66949         0.66835
C         57.76832        48.73620         1.16112
C         56.47696        48.03720         1.22306
C         58.76790        25.34660        -0.64126
C         60.01349        27.48947        -0.82908
C         58.78464        26.74698        -0.64303
C         60.04536        28.83601        -0.71964
C         58.84905        29.60028        -0.20687
C         60.00866        31.79512        -0.69793
C         58.81874        31.06441        -0.58589
C         59.99536        33.17099        -0.89905
C         58.77767        33.88750        -0.91842
C         59.92960        36.08353        -1.23300
C         58.76082        35.34028        -0.96468
C         59.92778        37.46574        -1.17230
C         58.76178        38.17881        -0.79682
C         59.97746        40.35880        -0.70870
C         58.78267        39.63326        -0.64662
C         59.99442        41.75074        -0.59931
C         58.80838        42.48427        -0.43893
C         60.00078        44.67499        -0.32016
C         58.81207        43.93039        -0.27426
C         60.01353        46.04640        -0.04886
C         58.83931        46.71838         0.30277
C         58.87351        48.11027         0.69220
O         34.01620        39.27720         1.49365
O         35.92668        35.90743         2.52869
O         48.62534        34.81368        -2.25260
O         53.10632        33.40194         0.88049
O         39.52527        29.18965        -1.23524
O         37.66191        39.51076        -1.08938
O         40.72779        52.81871         1.64699
O         36.15163        48.26539        -2.32268
O         29.25227        42.99861        -2.79604
O         24.58606        29.09628        -1.44886
O         53.08004        42.32779        -1.57052
O         48.32909        48.32662         2.88427
O         32.80085        28.16323        -0.90149
O         41.08322        33.33671         2.12784
O         44.60782        41.83459         2.45339
O         29.96102        39.55090        -2.38354
O         33.78081        34.41920         2.38386
O         39.81042        22.80940         2.22224
O         55.77563        48.15944         2.53100
O         30.01952        35.35760        -1.71227
O         44.87278        37.66456        -1.76971
H         45.62852        37.24840        -2.23920
O         32.48177        24.70834         2.41548
H         33.16933        24.23612         2.93033
O         31.94534        46.65971        -2.93829
H         32.81624        47.07349        -3.12379
O         31.89492        24.95383        -1.18232
H         31.34102        25.57552        -1.69948
O         35.05257        44.70930         1.43861
H         35.03699        43.81128         1.83500
O         50.39489        27.16392        -2.39429
H         49.70464        27.63907        -2.90273
O         39.22740        26.57444         2.25039
H         39.06100        27.45876         2.63762
O         47.47591        22.95357        -2.32122
H         48.28588        23.32998        -2.72863
O         44.99674        27.29833        -2.21976
H         44.86837        26.35761        -2.47011
O         43.73389        46.70217         2.86833
H         44.50505        47.17916         3.24524
O         52.92526        48.50859         2.98896
H         52.14047        48.83395         3.47757
O         37.82956        20.06730         2.68356
H         38.70681        19.71231         2.94334
O         58.99249        29.60307         1.26790
H         58.98550        28.66559         1.55751
O         52.43009        23.29850        -2.75360
H         53.15752        23.86746        -3.08424
O         47.87037        20.02171         1.51744
H         47.08153        19.52057         1.81576
O         32.00191        36.28290         2.23428
H         32.33170        35.57584         2.83838
O         36.19614        29.54337        -1.24533
H         37.04688        29.64257        -1.72386
O         53.85095        48.59545        -0.56155
H         53.06484        48.17657        -0.97109
O         51.03376        26.75869         1.18031
H         51.87701        26.51101         1.63195
O         44.62684        33.67371         1.72156
H         44.30654        32.80979         2.09010
O         38.58559        39.75017         2.41109
H         39.26513        39.32705         2.97683
O         35.62730        28.90957         2.30885
H         34.82912        28.64181         2.81135
O         47.93065        41.30177         2.52635
H         47.04381        41.08408         2.88794
O         23.83388        26.46590        -1.69158
H         23.95095        27.38748        -2.03098
O         43.06358        31.47005         2.09695
H         42.33767        31.98327         2.53782
O         38.90196        25.34239        -1.16538
H         38.77870        24.44827        -1.54616
O         46.17281        51.16625         2.98713
H         46.96389        51.61087         3.36009
O         36.51116        33.43046         2.92932
H         35.85819        34.05907         3.32165
O         42.40742        36.05422        -1.47902
H         43.14778        36.58368        -1.86584
O         50.41018        33.07395        -2.76508
H         49.95255        33.85451        -3.16217
O         44.56128        33.35639        -1.94522
H         45.10489        32.77773        -2.53244
O         55.10027        31.82148        -2.50928
H         55.96975        32.19795        -2.76701
O         47.72241        28.96270         1.17659
H         47.01831        28.39713         1.55982
O         51.34999        38.41151        -2.22530
H         52.08763        39.02332        -2.43893
O         38.62931        48.83120        -2.28289
H         37.84820        48.83626        -2.88715
O         53.81796        26.64625         1.38653
H         54.01773        27.55060         1.71300
O         35.24821        39.92822        -1.92737
H         36.16077        39.97998        -2.29615
O         31.60012        29.45171         2.31870
H         30.81698        29.93026         2.66455
O         56.47945        38.12007         1.42249
H         56.50880        37.17226         1.67498
O         46.08030        31.00836        -2.46166
H         45.45016        30.28434        -2.67396
H         22.07652        26.77328         0.74019
H         22.08734        29.20550         0.82939
H         22.01721        31.17301         0.42941
H         22.05274        33.60906         0.39883
H         22.06360        35.49998         0.13729
H         22.09310        37.90080        -0.16539
H         22.09420        39.74236        -0.54284
H         22.11335        42.14507        -0.81914
H         22.11185        44.00214        -1.02742
H         22.13946        46.45519        -1.04474
H         25.26214        23.45345         0.89306
H         23.18146        24.58327         0.34063
H         25.50261        49.81403        -0.99033
H         23.38136        48.57899        -1.01148
H         26.92999        22.46530         0.88152
H         27.12584        50.72937        -0.78990
H         29.04609        21.27328         0.99326
H         29.21174        51.94965        -0.68920
H         32.81008        19.12733         0.44925
H         30.69826        20.33117         0.41130
H         32.93148        54.11881        -0.66000
H         30.83704        52.90223        -0.73513
H         34.45599        18.20609         0.45813
H         34.56708        55.06582        -0.82120
H         36.55063        17.00405         0.32233
H         36.66896        56.27743        -0.68015
H         40.33826        14.84506         0.32889
H         38.19543        16.02988         0.55647
H         40.50786        58.35616        -0.92555
H         38.34961        57.17285        -1.00549
H         42.77902        14.87159         0.11031
H         42.93620        58.34853        -0.61657
H         44.90120        16.09658        -0.09227
H         45.02983        57.14667        -0.17644
H         48.54590        18.30182        -0.86788
H         46.41774        17.11291        -0.81836
H         48.68302        55.00418         0.59113
H         46.63557        56.20556         0.12029
H         50.28903        19.25013        -0.03959
H         50.20302        54.13958         1.26761
H         52.36199        20.44938        -0.61184
H         52.31031        52.95840         1.41696
H         56.01000        22.59530        -0.81980
H         53.97636        21.38488        -1.28707
H         56.07171        50.85227         1.49203
H         53.96086        52.04301         1.36705
H         57.61428        23.54298        -0.57878
H         57.82808        49.77001         1.52846
H         59.71742        24.79636        -0.71096
H         60.92166        26.92955        -1.09984
H         60.99656        29.36506        -0.87208
H         60.97940        31.28985        -0.60677
H         60.95321        33.70278        -0.96794
H         60.86169        35.56893        -1.50160
H         60.85737        38.00386        -1.39903
H         60.93669        39.83885        -0.83226
H         60.96480        42.26284        -0.63860
H         60.95372        44.18199        -0.55388
H         60.96475        46.59711        -0.07401
H         59.83812        48.63751         0.65393
