         470
 CSIRO Nanostructure Databank - Neutral Graphene Oxide Data Set
C         37.60810        49.86507        -0.72558
C         36.47964        50.52727        -1.09420
C         37.49478        52.72009        -0.75495
C         36.41963        51.96595        -1.10464
C         40.11914        48.50896         0.15872
C         40.08257        49.91363        -0.06273
C         38.74816        50.58203        -0.13586
C         39.97410        52.83948        -0.12399
C         38.69019        52.09930        -0.16902
C         39.98813        54.19908         0.13694
C         42.56284        48.46497        -0.04765
C         41.30891        47.82503         0.19234
C         42.53129        49.91182        -0.26793
C         41.27676        50.61883        -0.20233
C         42.45899        52.87825        -0.01087
C         41.25162        52.12307        -0.50566
C         42.43688        54.25880         0.22880
C         41.18350        54.93243         0.24998
C         45.00905        45.94400         1.32973
C         43.82123        46.45146         0.90108
C         45.02481        48.10279        -0.36716
C         43.74702        47.67059         0.12055
C         44.95317        50.21892        -0.77541
C         43.70785        50.71659        -0.39098
C         44.93485        52.90608        -0.29628
C         43.73115        52.11799         0.18884
C         44.92907        54.39462        -0.04062
C         43.68579        55.00333         0.45126
C         45.02751        56.95039         1.07953
C         43.78085        56.26966         0.99778
C         47.58815        44.47631         1.17250
C         47.56528        45.85920         0.90452
C         46.31949        46.69099         1.21761
C         47.46113        48.61627         0.07667
C         46.23241        47.78260         0.18969
C         47.44187        50.07553        -0.25111
C         46.19274        50.82614        -0.47452
C         47.45072        52.91769        -0.29925
C         46.22941        52.21543        -0.29915
C         47.43344        54.31944        -0.04762
C         46.22700        55.03518         0.20080
C         47.59030        57.00958         0.98506
C         46.23602        56.36642         0.69422
C         47.59120        58.51971         0.99450
C         49.98838        44.34257         0.70009
C         48.74956        43.73798         1.05598
C         49.97774        45.75412         0.35502
C         48.74560        46.49419         0.44163
C         49.91974        48.55202        -0.30336
C         48.75590        47.88245         0.04100
C         49.86044        49.92044        -0.98489
C         48.69555        50.78752        -0.54926
C         49.87023        52.95696        -0.88364
C         48.69372        52.19240        -0.57260
C         49.78956        54.38401        -0.74855
C         48.66716        55.04017        -0.14542
C         49.84463        57.19654        -0.15445
C         48.70641        56.43302         0.13334
C         49.76967        58.70241        -0.23532
C         48.60731        59.26563         0.54376
C         52.41127        41.56160         1.44417
C         51.24749        42.21636         1.17533
C         52.46964        44.24101         0.45362
C         51.19640        43.60583         0.80049
C         52.44412        45.71480         0.02503
C         51.16565        46.44700         0.03549
C         52.40742        48.55628        -0.40194
C         51.17472        47.85325        -0.24233
C         52.44256        49.99432        -0.56369
C         51.18762        50.70000        -1.00131
C         52.43904        52.91302        -0.77034
C         51.16248        52.21130        -1.09380
C         52.65165        54.20270        -1.20012
C         50.83011        55.26365        -1.16099
C         52.31073        57.26551        -0.71529
C         51.00817        56.57638        -0.70298
C         52.33477        58.64210        -0.44833
C         51.10896        59.37667         0.08711
C         52.27560        61.49166        -0.49229
C         51.11483        60.82650        -0.32997
C         55.06967        40.20932         2.37551
C         54.95012        41.67042         2.13893
C         53.67021        42.31355         1.62686
C         54.89277        44.37895         0.93459
C         53.73731        43.65985         0.98641
C         54.88645        45.88093         0.79243
C         53.67330        46.50584         0.14283
C         54.91406        48.60916        -0.22774
C         53.63792        47.85628        -0.12983
C         54.88766        50.08309        -0.07311
C         53.60102        50.72154        -0.27690
C         54.85956        52.89884        -0.26671
C         53.52376        52.21456        -0.00208
C         54.91601        54.36965        -0.49393
C         53.66801        55.10259        -0.74501
C         54.78998        57.26255        -0.51511
C         53.57843        56.52856        -0.71926
C         54.81229        58.67944        -0.47899
C         53.56214        59.38518        -0.45019
C         54.78073        61.53041        -0.32859
C         53.55843        60.80962        -0.40201
C         54.81899        62.95733        -0.21050
C         57.56262        40.23730         2.28979
C         56.24950        39.57093         2.49519
C         57.54780        41.68373         1.90586
C         56.23737        42.43466         1.94601
C         57.45128        44.39431         0.80840
C         56.19716        43.81109         1.37607
C         57.39490        45.80272         0.42766
C         56.19274        46.44756         0.31639
C         57.42652        48.62601         0.37379
C         56.19548        47.88360        -0.02374
C         57.39225        50.10981         0.37577
C         56.07548        50.76508         0.13395
C         57.41026        52.96398         0.18661
C         56.09086        52.23060         0.25660
C         57.41796        54.39843        -0.13694
C         56.12482        55.09853        -0.05350
C         57.34461        57.26324        -0.36944
C         56.06129        56.57870        -0.18615
C         57.31103        58.67929        -0.38507
C         56.04914        59.39375        -0.37388
C         57.24698        61.55115        -0.16992
C         56.03395        60.82321        -0.30117
C         57.26457        62.97418        -0.06320
C         55.99676        63.64676        -0.07580
C         59.78027        37.37320         1.04766
C         58.66992        38.07703         1.36305
C         60.03345        40.16548         1.59600
C         58.82259        39.37136         2.11800
C         59.98339        41.61173         1.16455
C         58.59735        42.18382         0.91518
C         59.77260        44.26791        -0.06229
C         58.60342        43.67473         0.70660
C         59.89015        45.74320         0.25715
C         58.64900        46.52116         0.23349
C         59.91389        48.63138        -0.07255
C         58.69906        47.89849         0.19731
C         59.87017        50.09085        -0.18368
C         58.66806        50.82628         0.08158
C         59.85749        52.95311        -0.33085
C         58.66949        52.21973        -0.01639
C         59.85329        54.38207        -0.45644
C         58.59128        55.09441        -0.33443
C         59.79129        57.24914        -0.54367
C         58.55855        56.54616        -0.42677
C         59.77429        58.66678        -0.42584
C         58.53985        59.35844        -0.29331
C         59.79882        61.51856         0.08456
C         58.49657        60.79138         0.01296
C         59.76216        62.97839        -0.21801
C         58.49459        63.70084         0.00501
C         59.80143        65.75015         0.45514
C         58.61288        65.06988         0.40729
C         62.32670        35.77593         1.05046
C         62.31505        37.19033         0.96440
C         61.11178        37.96473         1.10552
C         62.36671        40.04318         0.72912
C         61.19690        39.36694         1.16968
C         62.31408        41.41855         0.33458
C         61.14070        42.19342         0.42339
C         62.26675        44.25998        -0.41347
C         61.10899        43.56341         0.02764
C         62.34288        45.69550        -0.51459
C         61.18426        46.47941        -0.01080
C         62.24961        48.56653        -0.90774
C         61.09030        47.91835        -0.29161
C         62.23249        50.08080        -0.98729
C         61.04029        50.80754        -0.51480
C         62.27288        52.93960        -0.88204
C         61.06703        52.23186        -0.54637
C         62.26914        54.36087        -0.95980
C         61.04929        55.08311        -0.74373
C         62.20965        57.27614        -0.96144
C         61.03263        56.54543        -0.75456
C         62.23473        58.70523        -0.78887
C         61.02284        59.38320        -0.45292
C         62.26298        61.45083        -0.10108
C         61.04431        60.77779        -0.22080
C         62.21986        62.88898         0.28537
C         61.06743        63.70190        -0.22849
C         62.35187        65.82623         0.43323
C         61.08441        65.23446        -0.16764
C         62.47569        67.26191         0.39572
C         64.77017        35.70981         0.88220
C         63.51466        35.06511         1.01467
C         64.79054        37.12822         0.76042
C         63.56496        37.86532         0.80653
C         64.78724        39.91569         0.25330
C         63.57030        39.27518         0.58484
C         64.74357        41.23132        -0.40784
C         63.43817        41.96263        -0.45395
C         64.72144        44.12611        -1.18130
C         63.42797        43.43890        -0.81991
C         64.69416        45.63600        -1.35597
C         63.49030        46.39363        -0.94392
C         64.70562        48.59085        -1.20091
C         63.54235        47.84053        -0.97838
C         64.73642        50.03703        -1.24056
C         63.51159        50.80642        -1.10774
C         64.63837        52.92954        -1.75844
C         63.48483        52.19369        -1.12465
C         64.70563        54.40176        -1.38187
C         63.51153        55.08361        -1.21646
C         64.67326        57.34368        -1.76703
C         63.43648        56.56573        -1.40113
C         64.65135        58.93926        -1.63762
C         63.46103        59.43737        -0.81430
C         64.74650        61.39142         0.13968
C         63.47830        60.75648        -0.31118
C         64.73588        62.80988         0.68962
C         63.45541        63.58618         0.72749
C         64.73434        65.70424         1.03605
C         63.49973        65.07405         0.71675
C         64.68433        67.13579         1.53896
C         63.57406        67.90287         0.87171
C         67.23416        32.85794         0.95785
C         66.04276        33.56298         0.96317
C         67.26461        35.65979         0.74570
C         66.02101        34.97184         0.86231
C         67.28797        37.09336         0.63645
C         66.03620        37.82620         0.62751
C         67.26441        39.98807         0.43241
C         66.00749        39.21983         0.39308
C         67.25637        41.45030         0.06008
C         66.03529        42.03299        -0.58335
C         67.23739        44.23977        -0.76260
C         65.99356        43.46402        -0.86285
C         67.24845        45.70870        -1.04150
C         65.99117        46.40013        -1.46123
C         67.27077        48.62367        -1.17153
C         65.99655        47.89763        -1.42489
C         67.23924        50.05597        -1.21621
C         65.97016        50.71937        -1.34671
C         67.25895        52.93421        -1.61987
C         65.96747        52.16651        -1.68778
C         67.19455        54.41876        -1.53621
C         65.97940        55.10308        -1.51715
C         67.11293        57.11376        -2.22520
C         65.94170        56.53948        -1.79014
C         67.12369        59.28883        -1.83720
C         65.94601        59.65629        -1.23948
C         67.19447        61.53518        -0.21732
C         66.01428        60.84993        -0.40192
C         67.23881        62.83944         0.48956
C         65.97608        63.60002         0.64794
C         67.23501        65.72850         0.91847
C         65.95200        64.96530         0.91359
C         67.23550        67.02543         1.66022
C         66.01931        67.85084         1.56835
C         67.34375        69.83350         2.15762
C         66.14447        69.22692         1.82605
C         69.73925        31.34885         0.93364
C         69.72755        32.76241         0.85895
C         68.48136        33.51176         0.85132
C         69.75340        35.62965         0.64221
C         68.49733        34.93325         0.73927
C         69.77096        37.05441         0.50571
C         68.52319        37.75212         0.48908
C         69.80421        39.89159        -0.01874
C         68.55660        39.22619         0.47072
C         69.81462        41.37397        -0.28053
C         68.54875        42.16180        -0.13763
C         69.84535        44.20583        -0.94344
C         68.53374        43.48531        -0.83136
C         69.83584        45.70683        -1.14280
C         68.53000        46.44980        -1.30544
C         69.71814        48.62537        -0.96063
C         68.47996        47.92419        -1.09734
C         69.70576        50.05519        -1.02292
C         68.47665        50.77893        -1.17877
C         69.74082        52.89952        -1.31004
C         68.51997        52.21565        -1.28632
C         69.80485        54.35908        -1.62986
C         68.49450        55.12739        -1.74452
C         69.34365        57.47556        -1.28192
C         68.39451        56.61695        -1.79127
C         69.51640        58.92106        -1.30168
C         68.42237        59.76475        -1.42897
C         69.76044        61.63135        -0.42811
C         68.44643        61.20284        -1.02641
C         69.81781        62.92297         0.12333
C         68.54737        63.56025         0.56271
C         69.81118        65.68186         1.12039
C         68.53939        65.04580         0.69523
C         69.81098        66.92149         1.69204
C         68.54176        67.61719         2.07508
C         69.88784        69.72131         1.81081
C         68.62112        69.09324         2.46257
C         70.00902        71.19819         2.06830
C         72.15416        31.32260         0.89297
C         70.93009        30.63877         0.95047
C         72.16991        32.70708         0.81736
C         70.96859        33.45508         0.79798
C         72.19115        35.63069         0.68429
C         70.97984        34.90628         0.70621
C         72.21084        37.01350         0.57718
C         71.02312        37.76306         0.46288
C         72.23988        39.96081         0.20215
C         71.07972        39.20184         0.25119
C         72.24512        41.37165         0.00260
C         71.09238        42.11455        -0.20692
C         72.10534        44.37578         0.02793
C         71.05974        43.56045        -0.35864
C         72.06526        45.79427        -0.09628
C         70.99893        46.47531        -0.65523
C         72.13901        48.66574        -0.61054
C         70.95097        47.92296        -0.75407
C         72.13990        50.04343        -0.73911
C         70.94750        50.75539        -0.98500
C         72.20112        52.81576        -1.50336
C         70.97827        52.17746        -1.23256
C         72.29088        54.20777        -1.63439
C         71.15996        55.00503        -1.54177
C         72.17243        57.38039        -1.70972
C         71.27815        56.41568        -1.29292
C         72.01776        58.76185        -1.36603
C         70.85456        59.46376        -1.05197
C         72.15968        61.47849        -0.25336
C         70.93594        60.86784        -0.61053
C         72.21643        62.80177         0.17892
C         71.04728        63.54777         0.40421
C         72.19684        65.41616         1.73150
C         71.12956        65.03480         0.72692
C         72.19005        66.64368         2.29467
C         71.06794        67.55285         2.08492
C         72.29065        69.62016         2.69823
C         71.11542        68.92850         2.24171
C         72.30664        70.97626         2.84981
C         71.14268        71.76806         2.53425
O         67.74891        66.85433         3.06053
O         60.78479        46.07756         1.35566
O         67.20077        45.26110         0.35678
O         52.55063        44.62388        -0.96682
O         51.72575        54.75755        -2.09679
O         45.01009        48.99489        -1.45120
O         47.47326        49.58551         1.23447
O         54.05190        42.35032         3.06303
O         64.77455        61.65210         1.58464
O         51.30877        51.37181        -2.31591
O         69.32864        46.08482        -2.46430
O         70.26528        56.85526        -0.42281
O         63.74894        56.93499        -2.82855
O         56.69685        52.72162         1.48557
O         67.85214        42.25142         1.13736
O         38.42603        51.34456         1.07998
O         67.08559        58.34450        -2.87007
O         66.07817        47.13885        -2.70458
O         67.99032        39.78991         1.69991
O         59.15673        61.12476         1.32436
O         55.94662        55.89911         1.15374
O         67.87001        65.76876        -0.40875
O         65.48500        41.19709        -1.66735
O         69.18720        54.61913        -2.95979
O         56.31374        43.60492         2.83202
O         44.73906        53.80747        -1.40808
O         57.37042        49.34547         1.65137
O         62.47627        63.10304         1.71594
O         69.25374        43.49218        -2.08480
O         55.73591        48.17945        -1.39254
O         60.50565        63.22493        -1.49147
O         57.91218        41.30309         3.25440
O         63.04685        42.40068        -1.78855
O         68.03768        62.86084         1.75704
O         61.93324        49.25109        -2.17335
O         66.73836        52.42100        -2.92002
O         69.70467        40.41104        -1.38982
O         64.56676        44.75379        -2.51622
O         60.36279        41.25893         2.52342
O         55.14096        53.39638        -1.60707
O         59.18278        38.97190         3.46756
H         59.30757        39.81000         3.96938
O         58.17222        41.62638        -0.37527
H         58.50845        42.22611        -1.08362
O         64.35551        59.42251        -2.97035
H         63.83674        58.71293        -3.42158
O         53.26188        52.35482         1.42710
H         54.03634        52.01193         1.92293
O         46.54243        47.29286         2.53182
H         46.93947        48.18580         2.39424
O         68.81575        69.17277         3.89383
H         68.24326        68.47754         4.29066
O         64.31240        67.02588         2.97090
H         64.99682        66.47590         3.41061
O         68.29917        62.02940        -2.23413
H         67.57067        61.65003        -2.77159
O         47.91711        56.59192         2.35112
H         47.24455        56.97560         2.95198
O         54.79221        46.34697         2.19450
H         55.35153        45.75733         2.74979
O         71.53270        65.64658        -0.54441
H         71.45479        66.61872        -0.44143
O         49.51299        58.99396        -1.64092
H         48.68037        58.54680        -1.90041
O         64.26076        52.96342        -3.16907
H         65.10286        53.00268        -3.68279
O         43.94934        51.96566         1.63307
H         43.18103        51.48426         2.00677
O         49.53508        49.57188        -2.36762
H         49.98406        50.24809        -2.93350
O         69.70262        69.53096         0.37949
H         70.42730        69.99889        -0.08536
O         59.36944        44.13083        -1.47075
H         60.16011        44.26923        -2.03696
O         61.07125        65.73196        -1.53987
H         60.62499        65.03821        -2.08197
O         51.23738        59.33756         1.53695
H         52.10156        59.73421         1.77581
O         41.30014        52.18481        -1.99076
H         41.56614        53.09686        -2.23742
H         37.68695        48.78153        -0.89565
H         35.62648        49.96805        -1.50389
H         37.49331        53.80530        -0.93402
H         35.52103        52.44758        -1.51571
H         39.17897        47.96161         0.31023
H         39.03495        54.72366         0.30089
H         41.28742        46.73929         0.35650
H         41.14107        56.01530         0.42576
H         44.99230        45.03353         1.94673
H         42.89456        45.92415         1.17273
H         45.02294        57.96835         1.49520
H         42.88464        56.78235         1.37525
H         46.67010        43.96994         1.50011
H         46.76493        59.01857         1.52696
H         48.71270        42.66682         1.29264
H         48.56158        60.36041         0.65665
H         52.38863        40.49313         1.69980
H         50.31300        41.63790         1.19056
H         52.25697        62.56374        -0.73419
H         50.15679        61.35744        -0.42724
H         54.13733        39.65251         2.55141
H         53.87793        63.52370        -0.21466
H         56.25755        38.49613         2.73076
H         55.97073        64.74207         0.00624
H         59.68343        36.36285         0.62285
H         57.67201        37.63338         1.23304
H         59.80153        66.78675         0.82325
H         57.70664        65.58578         0.75995
H         61.38031        35.23048         1.16909
H         61.65501        67.83982        -0.05275
H         63.46615        33.97159         1.10175
H         63.63192        68.99967         0.82890
H         67.18829        31.76481         1.04454
H         65.10451        32.99989         1.05053
H         67.32634        70.90665         2.39861
H         65.24556        69.85994         1.77155
H         68.79594        30.78888         0.97670
H         69.14734        71.83029         1.80758
H         73.09899        30.76214         0.90472
H         70.91467        29.54173         1.00755
H         73.14054        33.21768         0.76720
H         73.15183        35.10431         0.75253
H         73.18269        37.52469         0.56058
H         73.21605        39.47818         0.35161
H         73.22017        41.87985         0.01602
H         72.99964        43.92944         0.48524
H         72.92387        46.35252         0.30079
H         73.09310        48.15057        -0.43946
H         73.09469        50.57586        -0.64452
H         73.12879        52.23297        -1.55298
H         73.28130        54.68254        -1.69243
H         73.06395        57.08501        -2.28113
H         72.94712        59.34985        -1.42785
H         73.10378        60.92574        -0.35365
H         73.19934        63.25737         0.36445
H         73.04738        64.73896         1.89792
H         73.02632        66.96438         2.93341
H         73.18616        69.03368         2.94945
H         73.20928        71.48290         3.21776
H         71.19454        72.85695         2.67909
