         314
 CSIRO Nanostructure Databank - Neutral Graphene Oxide Data Set
C         30.79685        57.23876         1.36544
C         30.69373        58.52079         0.72824
C         29.43554        59.00184         0.28211
C         30.48047        60.99353        -0.61977
C         29.34136        60.22426        -0.38016
C         33.34751        53.10458         1.86044
C         33.31189        54.50208         1.67788
C         32.13637        55.26320         1.95480
C         33.27560        57.41070         1.41367
C         32.03231        56.63097         1.62375
C         33.15357        58.91380         1.12458
C         31.85087        59.30060         0.47766
C         32.93048        61.33545        -0.45609
C         31.75409        60.54748        -0.18683
C         35.70126        48.80974         1.41802
C         35.56655        50.18010         1.06946
C         34.51167        50.93474         1.60972
C         35.44832        52.94154         0.57775
C         34.42014        52.32267         1.36444
C         35.42026        54.35387         0.41535
C         34.42426        55.13337         1.02208
C         35.46960        57.23335         0.10088
C         34.51897        56.61078         1.04784
C         35.56836        58.70340        -0.04324
C         34.37613        59.52228         0.41957
C         35.39955        61.52073        -0.61192
C         34.21346        60.85045        -0.22114
C         37.97614        44.41068         1.68167
C         37.49409        45.58984         1.06678
C         36.82064        46.68080         1.59621
C         37.70424        48.50316         0.02591
C         36.72289        47.96590         0.94930
C         37.57361        49.92513        -0.39720
C         36.53394        50.79132         0.19939
C         37.54900        52.88693        -0.79583
C         36.48782        52.17305        -0.03162
C         37.60438        54.37068        -0.78832
C         36.44839        55.00416        -0.38620
C         37.89059        57.36702        -1.49896
C         36.14630        56.37928        -0.71425
C         37.86225        58.77200        -1.20143
C         36.66336        59.39409        -0.78950
C         37.85108        61.53278        -0.92626
C         36.62958        60.83298        -0.75879
C         40.48242        40.24812         1.89254
C         40.47536        41.66952         1.71727
C         39.28028        42.39461         1.76724
C         40.20986        44.31158         0.45159
C         39.13316        43.71908         1.24462
C         40.16819        45.64264        -0.10931
C         38.94911        46.38037        -0.24499
C         40.07061        48.44537        -0.91308
C         38.84616        47.78643        -0.39147
C         40.07341        49.92603        -1.18816
C         38.76365        50.63491        -1.06568
C         40.10037        52.87036        -1.12417
C         38.80022        52.13432        -1.19417
C         40.11677        54.26183        -1.18328
C         38.81672        55.00873        -1.53074
C         40.23253        57.17405        -1.24905
C         38.95818        56.51927        -1.31435
C         40.27088        58.61608        -1.42359
C         39.12392        59.45798        -1.30787
C         40.25101        61.70664        -0.76202
C         39.09903        60.90440        -1.07933
C         42.54733        36.14120         0.08012
C         42.63384        37.32252         0.81351
C         41.48547        38.05892         1.20890
C         42.94495        39.87471         1.87665
C         41.59060        39.37308         1.72814
C         42.89620        41.94968         1.40111
C         41.62162        42.39460         1.17649
C         42.62876        44.16983        -0.17768
C         41.47416        43.63292         0.43076
C         42.57949        45.52164        -0.74561
C         41.35458        46.30672        -0.52215
C         42.53177        48.44787        -0.86039
C         41.35610        47.71834        -0.74768
C         42.50238        49.91581        -0.62642
C         41.30903        50.70661        -0.94851
C         42.57027        52.83699        -0.72015
C         41.31859        52.10741        -0.90286
C         42.58504        54.26556        -0.80497
C         41.36863        54.98308        -1.04880
C         42.75433        57.07280        -1.36674
C         41.41286        56.41013        -1.16055
C         42.75136        58.57553        -1.22264
C         41.57232        59.18182        -1.62133
C         42.78099        61.61805        -0.52865
C         41.54041        61.32405        -1.11355
C         44.69064        33.76425        -1.89103
C         43.56766        34.35244        -1.26135
C         45.02468        36.07188        -0.27455
C         43.69772        35.49823        -0.47282
C         45.16592        37.24531         0.43409
C         44.00845        37.82142         1.20193
C         45.33486        40.08137         1.28096
C         44.04705        39.32220         1.29975
C         45.32238        41.50530         0.81564
C         43.96867        42.03601         0.35481
C         45.21892        44.13314        -0.62652
C         43.89361        43.41467        -0.30002
C         45.18390        45.61228        -0.78738
C         43.88427        46.26888        -1.05158
C         45.10404        48.55095        -0.87581
C         43.82800        47.77626        -1.07164
C         45.08505        49.97479        -0.51165
C         43.80316        50.67646        -0.38968
C         45.03060        52.82474        -0.36246
C         43.78728        52.14085        -0.52669
C         45.04855        54.26489        -0.31695
C         43.84399        54.97142        -0.59419
C         45.09623        57.11044        -0.48065
C         43.90045        56.38334        -0.69935
C         45.08325        58.57362        -0.52054
C         43.94389        59.31564        -0.87369
C         45.12565        61.42521        -0.23785
C         43.93153        60.77989        -0.61424
C         45.95071        34.30184        -1.75245
C         47.43640        36.01321        -0.80108
C         46.17441        35.45940        -0.92947
C         47.70792        37.12622         0.11124
C         46.49575        37.81072         0.73548
C         47.88561        40.00408         0.85273
C         46.60038        39.26483         1.12810
C         47.82138        41.52381         0.62317
C         46.49053        42.17610         0.43357
C         47.70970        44.15593        -0.51122
C         46.46122        43.46120        -0.18592
C         47.64206        45.64394        -0.75640
C         46.34951        46.36278        -0.71605
C         47.54968        48.55125        -0.74394
C         46.37648        47.81149        -0.73324
C         47.55364        49.97895        -0.50290
C         46.27605        50.67619        -0.35574
C         47.44050        52.79036         0.26820
C         46.23169        52.10038        -0.19615
C         47.50816        54.26087         0.20791
C         46.27788        54.97719        -0.10927
C         47.62229        57.08995        -0.23170
C         46.28707        56.38683        -0.18053
C         47.55237        58.53050         0.21565
C         46.27085        59.26900         0.02016
C         47.50539        61.41284         0.33161
C         46.33247        60.74393        -0.00363
C         49.06487        37.82190        -0.00906
C         50.22780        40.00351         0.10959
C         49.07654        39.30229         0.32452
C         50.27525        41.45401         0.10711
C         49.04046        42.16597         0.10116
C         50.22736        44.23854        -0.38443
C         49.02584        43.53344        -0.22206
C         50.19459        45.71726        -0.44088
C         48.89027        46.43207        -0.52866
C         50.12627        48.62668        -1.05199
C         48.84813        47.86058        -0.95976
C         50.03776        50.11616        -0.86975
C         48.75484        50.66508        -0.36121
C         50.05903        52.71920         0.48454
C         48.76520        51.99020         0.26336
C         49.98624        54.21869         0.74721
C         48.71791        54.92758         0.45452
C         49.91776        57.04727         0.84743
C         48.77912        56.35891         0.41522
C         49.77487        58.49898         1.29661
C         48.88334        59.26690         0.26992
C         49.84166        61.44033         1.02022
C         48.74036        60.74291         0.60211
C         51.47627        42.15627        -0.05061
C         52.69427        44.31055        -0.17745
C         51.48979        43.57232        -0.22074
C         52.76903        45.71073        -0.58795
C         51.43083        46.45712        -0.82783
C         52.60380        48.63266        -0.70645
C         51.42444        47.93787        -0.78525
C         52.61051        50.11428        -0.86649
C         51.31799        50.88407        -0.74234
C         52.50181        52.92675         0.10774
C         51.34216        52.19161        -0.02321
C         52.50776        54.29198         0.63013
C         51.25058        54.98409         0.75474
C         52.36905        57.07512         1.46179
C         51.16153        56.35631         1.01448
C         52.38787        58.54540         1.42093
C         51.09616        59.24723         1.51604
C         52.39078        61.39229         1.10143
C         51.10564        60.75644         1.36208
C         53.91680        46.56386        -0.31648
C         55.05281        48.72047        -0.20325
C         53.87081        47.94975        -0.44691
C         55.09487        50.11753        -0.22856
C         53.87818        50.86923        -0.63750
C         55.06966        53.04528         0.00889
C         53.79660        52.34565        -0.34498
C         55.01011        54.38656         0.63926
C         53.72522        54.97655         0.85525
C         54.94820        57.15658         1.39132
C         53.71133        56.34086         1.40978
C         54.85334        58.53707         1.47210
C         53.58264        59.24383         1.42890
C         54.81944        61.38676         1.05244
C         53.58338        60.69769         1.24400
C         56.26791        50.82947         0.08379
C         57.46670        52.92272         0.51912
C         56.30806        52.24267         0.18631
C         57.47031        54.34294         0.76083
C         56.20428        55.05927         0.90238
C         57.43719        57.15248         1.39040
C         56.23138        56.47150         1.26705
C         57.41487        58.60981         1.67323
C         56.08077        59.34060         1.63837
C         57.25204        61.42393         0.85434
C         56.06292        60.76261         1.20332
C         58.66474        54.99220         0.92662
C         59.64163        57.11202         0.13898
C         58.79374        56.44995         1.23391
C         60.15786        58.36598         0.33165
C         58.58588        59.46362         1.37566
C         59.68543        61.36174         0.25414
C         58.51841        60.76383         0.85237
C         60.84016        59.26959        -0.53678
C         60.70251        60.65963        -0.40408
O         47.94228        52.09961         1.46256
O         48.14096        40.94909         1.93018
O         44.52998        48.34301        -2.24264
O         49.52787        46.27486         0.77664
O         52.96409        56.48496         2.66374
O         53.43286        50.54837        -1.99722
O         37.81450        52.50476        -2.19983
O         47.34386        36.89629         1.51421
O         54.52231        53.11472        -1.36278
O         37.71447        50.05200        -1.85718
O         50.55534        50.91177        -1.99910
O         49.45325        48.13214        -2.26437
O         46.11719        39.63807         2.45984
O         51.04366        60.10043         2.70975
O         35.53110        59.38851         1.28574
O         56.75132        59.06293         2.91504
O         52.14367        45.90435        -1.93280
O         44.45552        43.37525        -1.64651
O         46.69761        58.73266         1.35488
O         47.72576        44.72706        -1.88922
O         43.10501        45.66181        -2.12042
O         43.09808        41.12975         2.50010
O         34.33440        57.16319         2.38884
O         42.99052        50.18799         0.76257
O         50.07009        53.24169         1.84520
O         41.61775        60.44067        -2.20498
O         36.66730        56.83949        -1.93049
O         37.77438        45.66030        -0.32780
O         40.03750        48.97279        -2.29717
O         59.84649        58.95101         1.61412
O         43.53216        41.09821        -0.69487
H         43.81953        41.49911        -1.55008
O         44.22834        37.35680         2.58166
H         45.05000        37.79623         2.90472
O         59.48730        56.51388         2.50139
H         59.74561        57.45210         2.66021
O         33.12497        59.55396         2.43006
H         33.96827        59.29771         2.86908
O         49.54973        59.21448        -1.01173
H         49.16155        58.47530        -1.54158
O         38.61682        54.83248        -2.95137
H         37.74229        55.21528        -3.17800
O         43.02982        56.86876        -2.81998
H         43.86579        57.33958        -3.02632
O         49.58719        37.63938        -1.33429
H         49.14058        38.26102        -1.94430
O         49.08498        58.43462         2.55193
H         49.46925        59.13106         3.13489
O         47.96962        57.13011        -1.67421
H         48.04184        56.20423        -1.99188
H         29.87538        56.65780         1.52177
H         28.53315        58.40263         0.46923
H         30.39593        61.95855        -1.13936
H         28.35980        60.58722        -0.71572
H         32.52059        52.60563         2.38602
H         31.22343        54.71917         2.24115
H         32.80466        62.30777        -0.95545
H         34.97388        48.39304         2.13035
H         33.76533        50.44136         2.24854
H         35.35638        62.59128        -0.86220
H         37.45536        44.02379         2.57019
H         36.35816        46.58499         2.58932
H         37.83506        62.62579        -0.80055
H         39.48726        39.77648         1.95547
H         38.38867        41.92287         2.20749
H         40.09897        62.58107        -0.11210
H         41.55633        35.71645        -0.14504
H         40.49178        37.66311         0.94650
H         42.87493        62.53107         0.07910
H         44.54478        32.86739        -2.50936
H         42.57242        33.90900        -1.40940
H         45.10939        62.51800        -0.10976
H         46.81204        33.83506        -2.25146
H         48.26696        35.63636        -1.41600
H         47.48446        62.51092         0.40849
H         49.77414        37.29215         0.67897
H         51.13103        39.46094        -0.20817
H         49.78079        62.52860         1.17649
H         52.43087        41.61111        -0.02509
H         53.61838        43.80804         0.14383
H         52.41002        62.44883         0.79571
H         54.83627        46.09371         0.06294
H         55.97555        48.17407         0.04402
H         54.78727        62.45000         0.77103
H         57.18686        50.26478         0.30233
H         58.41574        52.37474         0.61461
H         57.19501        62.46380         0.50091
H         59.60271        54.42225         0.85241
H         59.84096        56.56663        -0.79363
H         59.64393        62.44818         0.08318
H         61.45277        58.86829        -1.35573
H         61.38614        61.27453        -1.01125
