         615
 CSIRO Nanostructure Databank - Neutral Graphene Oxide Data Set
C         23.42207        69.69942        -1.66872
C         23.43869        71.08790        -1.92166
C         22.37161        71.74615        -2.60080
C         23.56874        73.85386        -2.48290
C         22.43950        73.10452        -2.86019
C         25.77912        65.60848        -0.45833
C         25.67080        67.00998        -0.33308
C         24.52993        67.66701        -0.84836
C         25.58248        69.86236        -0.49286
C         24.48678        69.07566        -0.98813
C         25.62174        71.21789        -0.77220
C         24.57017        71.85206        -1.49911
C         25.84934        73.97046        -1.51593
C         24.63852        73.24742        -1.80817
C         28.20429        61.42659        -0.32701
C         28.14729        62.78958         0.17127
C         27.08200        63.54845        -0.29588
C         27.98873        65.66221         0.61198
C         26.93107        64.94008        -0.02666
C         27.87685        67.07506         0.75535
C         26.74543        67.74508         0.27249
C         27.97080        69.93119         0.30931
C         26.61190        69.24926         0.44213
C         28.01529        71.23476        -0.09241
C         26.73837        72.04481        -0.18091
C         28.17404        74.05274        -0.78582
C         26.91363        73.38375        -0.86526
C         30.53571        57.09043         0.26614
C         30.41023        58.47631         0.54584
C         29.30648        59.12606        -0.07263
C         30.39244        61.35892         1.53037
C         28.84921        60.39892         0.34058
C         30.32400        62.78540         1.44039
C         29.20953        63.46495         0.93109
C         30.27940        65.66260         1.45766
C         29.17394        64.93455         1.02375
C         30.17990        67.07544         1.99100
C         28.89122        67.91140         1.53731
C         30.33967        69.91214         0.94216
C         29.16138        69.22398         0.80222
C         30.41272        71.35121         0.57336
C         29.34603        71.88313        -0.35353
C         30.61009        74.05188        -0.48530
C         29.35019        73.39047        -0.46722
C         32.75360        52.72683         0.88274
C         32.75748        54.10341         0.92212
C         31.61479        54.90439         0.57796
C         32.73562        56.98001         1.44548
C         31.60260        56.29305         0.71254
C         32.75526        58.47709         1.28740
C         31.53447        59.18430         1.19822
C         32.79988        61.29989         1.97037
C         31.55592        60.60577         1.43872
C         32.84439        62.78616         1.65662
C         31.56162        63.49189         1.84619
C         32.82274        65.69843         1.65225
C         31.54032        64.98620         1.82757
C         32.81097        67.10729         1.74643
C         31.52955        67.82410         1.96383
C         32.84016        69.97657         1.32746
C         31.56111        69.36316         1.56203
C         33.00282        71.27644         0.59073
C         31.71570        72.07102         0.53482
C         33.06163        74.03805        -0.14985
C         31.79575        73.41390        -0.10619
C         35.23453        48.36882         0.26698
C         35.19301        49.79871         0.43486
C         34.00603        50.48453         0.66821
C         35.19068        52.69608         0.56140
C         34.00728        51.91366         1.17916
C         35.29669        54.10326         1.13327
C         34.01458        54.84415         1.24372
C         35.20426        57.03178         0.86725
C         34.04741        56.31934         1.13445
C         35.20318        58.48428         0.91523
C         34.01782        59.14723         1.29078
C         35.32979        61.35244         1.30456
C         34.08507        60.57148         1.65082
C         35.26850        62.83088         1.21471
C         34.03064        63.50962         1.47414
C         35.25047        65.69244         1.30375
C         34.02807        64.97548         1.47237
C         35.24859        67.11905         1.44561
C         34.04233        67.80737         1.70558
C         35.37186        70.02121         1.81005
C         34.04371        69.28865         1.81318
C         35.43387        71.43082         1.32901
C         34.11776        72.16316         1.19164
C         35.46492        74.07012         0.28095
C         34.21877        73.44827         0.39322
C         37.74328        44.10627        -0.08906
C         37.66256        45.52539        -0.21025
C         36.47396        46.23074         0.01671
C         37.67092        48.39582        -0.07621
C         36.42658        47.66191         0.06519
C         37.66796        49.81024         0.10771
C         36.45882        50.52208         0.37754
C         37.67477        52.64581         0.32784
C         36.48909        51.92829         0.52874
C         37.74975        54.12448         0.45621
C         36.54120        54.90234         0.87712
C         37.55288        57.04747         0.07670
C         36.45303        56.35225         0.56051
C         37.56867        58.50603         0.05087
C         36.38653        59.22886         0.52400
C         37.50790        61.43464         0.09694
C         36.39776        60.62530         0.60753
C         37.62678        62.86306         0.45933
C         36.44544        63.54922         0.90016
C         37.66951        65.66833         0.67966
C         36.46630        64.98090         0.98554
C         37.63032        67.14249         0.65560
C         36.49271        67.85908         1.29706
C         37.88287        69.93213         1.53562
C         36.58224        69.20603         1.56893
C         37.85820        71.43679         1.85959
C         36.62954        72.08076         1.21821
C         37.88055        74.12787         0.60687
C         36.66077        73.45305         0.72564
C         40.32875        39.89019        -0.19940
C         40.22496        41.26300        -0.40263
C         39.02876        41.99652        -0.14066
C         40.09213        44.11492        -0.97244
C         38.92701        43.38450        -0.33364
C         40.06261        45.59796        -0.73236
C         38.88981        46.27033        -0.49797
C         40.06950        48.46624        -0.60821
C         38.87054        47.72427        -0.41398
C         40.08803        49.84206        -0.35274
C         38.89228        50.52612        -0.02201
C         39.97680        52.69731        -0.48559
C         38.87526        51.95858         0.01318
C         39.72077        54.02606        -0.94051
C         38.74773        54.82683        -0.36401
C         40.06657        57.08251        -0.59030
C         38.72235        56.29933        -0.47201
C         40.03721        58.52285        -0.25546
C         38.75994        59.20371        -0.19772
C         40.04325        61.43772        -0.16529
C         38.78253        60.68015        -0.26501
C         40.06270        62.81669        -0.05411
C         38.83413        63.55201         0.23533
C         40.10853        65.70365         0.09684
C         38.86347        64.98511         0.34379
C         40.14446        67.12090         0.12729
C         38.88423        67.88336         0.31122
C         40.10349        70.15398         0.24149
C         39.03614        69.27248         0.85853
C         40.45674        71.32171         1.18700
C         39.24384        72.21586         1.64276
C         40.29191        74.21628         0.57132
C         39.12480        73.50551         0.85178
C         42.83137        35.70481         0.56248
C         42.78968        37.03352         0.03351
C         41.61291        37.76736         0.00737
C         42.76388        39.85414        -0.59036
C         41.57276        39.17133        -0.31580
C         42.75432        41.29026        -0.89850
C         41.42782        42.00407        -0.85556
C         42.61526        44.15590        -0.59557
C         41.43750        43.47367        -0.69988
C         42.57536        45.65427        -0.36369
C         41.33875        46.30420        -0.95052
C         42.63643        48.51502        -0.74196
C         41.34480        47.79660        -0.92951
C         42.63787        49.92132        -0.64386
C         41.36348        50.58045        -0.31250
C         42.57879        52.77925        -0.76463
C         41.31435        52.09349        -0.41261
C         42.58972        54.24214        -0.51241
C         41.54289        55.11386        -1.00994
C         42.55473        57.04023        -0.00623
C         41.37339        56.38893        -0.51550
C         42.47288        58.49202         0.20815
C         41.22004        59.21081        -0.10224
C         42.57972        61.39224        -0.15172
C         41.29376        60.67017        -0.46977
C         42.53264        62.83065        -0.30391
C         41.33372        63.53974        -0.19797
C         42.52713        65.73186        -0.34684
C         41.32385        64.99708        -0.17340
C         42.57238        67.14598        -0.22188
C         41.35170        67.84080        -0.02111
C         42.67983        70.03124        -0.08547
C         41.34948        69.32686        -0.12065
C         42.74219        71.47873         0.22137
C         41.59680        72.14753         0.60188
C         42.75005        74.29034         0.26039
C         41.57459        73.58506         0.54732
C         45.24238        33.16736         1.84342
C         44.04064        33.74712         1.43719
C         45.32432        35.59640         0.39730
C         44.01562        35.00428         0.77724
C         45.35295        36.97166        -0.20531
C         44.04012        37.65331        -0.47096
C         45.35678        39.90740        -0.81779
C         44.03371        39.13295        -0.75977
C         45.21855        41.39148        -0.47451
C         43.99552        42.06600        -0.67674
C         45.10945        44.22281        -0.39075
C         43.91654        43.48131        -0.54613
C         45.08275        45.71707        -0.17421
C         43.86961        46.32403        -0.87258
C         45.08262        48.54680        -0.74969
C         43.85624        47.83142        -0.75161
C         45.08444        49.96738        -0.83324
C         43.83747        50.66130        -0.76024
C         45.00954        52.96958        -1.03671
C         43.77420        52.11095        -0.81322
C         45.10644        54.08741         0.07147
C         43.81675        54.91105         0.05900
C         45.03841        57.10568         0.09444
C         43.78871        56.38479         0.04267
C         45.02582        58.49504         0.11084
C         43.77597        59.26061         0.24293
C         45.07955        61.33146        -0.49916
C         43.76864        60.71267        -0.05606
C         45.09777        62.83521        -0.47225
C         43.79067        63.51479        -0.67519
C         45.05860        65.74767        -0.80809
C         43.75048        65.02022        -0.77119
C         45.08872        67.15892        -0.42710
C         43.85657        67.86559        -0.24146
C         45.20470        69.97209         0.20786
C         43.90772        69.24612        -0.04293
C         45.18396        71.45573        -0.10871
C         43.98338        72.17167         0.02758
C         45.21326        74.30143        -0.02312
C         43.98891        73.61444         0.07641
C         46.47327        33.82263         1.69001
C         47.73544        35.81708         0.96200
C         46.55162        35.07710         1.04909
C         47.76976        37.17033         0.52400
C         46.54334        37.82246         0.05230
C         47.65060        39.97486         0.36417
C         46.47997        39.18379        -0.07633
C         47.61076        41.46838         0.25702
C         46.37767        42.14337        -0.20337
C         47.56739        44.33738        -0.11029
C         46.34830        43.56262        -0.24133
C         47.58654        45.72848        -0.35242
C         46.36194        46.43760        -0.52450
C         47.57658        48.56197        -0.80474
C         46.34185        47.82716        -0.70043
C         47.55751        50.00609        -0.94393
C         46.33146        50.68570        -0.96818
C         47.60799        52.89454        -0.86905
C         46.31226        52.15966        -1.13916
C         47.59373        54.29236        -0.39065
C         46.32597        54.96589        -0.14176
C         47.58122        57.08561        -0.20059
C         46.27747        56.33797        -0.01471
C         47.55967        58.49072         0.35073
C         46.26625        59.26069         0.33542
C         47.51400        61.38443         0.16846
C         46.30913        60.70274         0.09800
C         47.55116        62.82965        -0.07937
C         46.30080        63.50449        -0.42635
C         47.61282        65.71056        -0.49234
C         46.36383        64.95570        -0.71676
C         47.58195        67.09357        -0.61118
C         46.34255        67.85048        -0.48341
C         47.59485        70.01527        -0.82094
C         46.38977        69.24227        -0.35078
C         47.63690        71.45744        -0.39988
C         46.41260        72.15689        -0.23320
C         47.67875        74.27632        -0.20153
C         46.43365        73.60103        -0.16263
C         48.96734        37.89991         0.57113
C         50.12925        40.08979         0.48121
C         48.97560        39.31571         0.43942
C         50.10942        41.53044         0.39093
C         48.87741        42.20188         0.27439
C         50.13430        44.44952         0.23688
C         48.80152        43.66045         0.29381
C         50.06515        45.78916        -0.33947
C         48.83583        46.45327        -0.50009
C         50.03336        48.56699        -1.16898
C         48.79403        47.86441        -0.76275
C         50.06934        50.04213        -1.06639
C         48.82927        50.72967        -0.92758
C         50.08261        52.82127        -0.55838
C         48.85609        52.12520        -0.72966
C         50.06453        54.23184        -0.27044
C         48.80924        54.91487        -0.14052
C         50.06273        57.09305         0.20049
C         48.77047        56.32687         0.40143
C         50.05038        58.50274         0.22162
C         48.80639        59.25184         0.24966
C         50.00737        61.36640         0.52908
C         48.75027        60.63455         0.32434
C         49.99092        62.87658         0.42942
C         48.74063        63.55182         0.01556
C         50.06606        65.64153        -0.16978
C         48.83284        64.97406        -0.24937
C         50.15378        67.06390        -0.52443
C         48.84788        67.83270        -0.74681
C         50.08898        69.95634        -0.45657
C         48.88408        69.28526        -0.58106
C         50.10898        71.40788        -0.42899
C         48.86556        72.13293        -0.38026
C         50.15376        74.24121        -0.26919
C         48.89659        73.57362        -0.27123
C         51.33303        42.26341         0.31021
C         52.59335        44.33353        -0.12600
C         51.39229        43.66467         0.14423
C         52.67084        45.78198        -0.20530
C         51.32988        46.52285        -0.43996
C         52.68220        48.51384        -1.43228
C         51.34348        47.81528        -1.18193
C         52.58409        50.04770        -1.32725
C         51.29835        50.73369        -1.00960
C         52.56122        52.85391        -0.50646
C         51.32157        52.12653        -0.70077
C         52.53217        54.25143        -0.19471
C         51.28581        54.93972        -0.08547
C         52.52132        57.07333         0.21794
C         51.28124        56.36765         0.13644
C         52.49405        58.49475         0.22946
C         51.28884        59.21790         0.19859
C         52.45137        61.39546         0.22487
C         51.28001        60.66333         0.28956
C         52.49365        62.83529         0.34485
C         51.28253        63.56567         0.27481
C         52.54956        65.66439         0.17131
C         51.30348        64.96111         0.11139
C         52.57193        67.09337         0.07704
C         51.35487        67.83037        -0.17538
C         52.55381        69.97699        -0.14174
C         51.33049        69.23161        -0.24666
C         52.56531        71.34911        -0.35201
C         51.33357        72.08983        -0.41575
C         52.62155        74.22678        -0.28944
C         51.36973        73.54191        -0.34600
C         53.91106        46.51117        -0.52325
C         55.10638        48.65388        -0.72171
C         53.89349        47.87066        -0.78348
C         55.11022        50.02535        -0.79427
C         53.86617        50.79554        -1.05577
C         55.02724        52.87017        -0.31078
C         53.81037        52.19247        -0.58599
C         54.99438        54.24142         0.01591
C         53.76657        54.95617         0.02225
C         55.02182        57.06969         0.45750
C         53.77181        56.37205         0.23333
C         55.00298        58.56790         0.71586
C         53.77343        59.20285         0.09383
C         54.95550        61.42021         0.26954
C         53.71720        60.69894         0.00225
C         54.96532        62.77764         0.50095
C         53.73549        63.52411         0.43248
C         55.01733        65.66605         0.46556
C         53.76997        64.95603         0.39850
C         55.02547        67.07645         0.31226
C         53.79476        67.76741         0.15895
C         55.04661        69.87701        -0.33704
C         53.80287        69.25927         0.32712
C         55.06705        71.39071        -0.05516
C         53.85140        72.07838        -0.68093
C         55.10346        74.19685        -0.39752
C         53.85703        73.55929        -0.37658
C         56.31346        50.79418        -0.58544
C         57.61460        52.89408        -0.35114
C         56.29435        52.15012        -0.39191
C         57.55471        54.21715         0.38248
C         56.22522        54.91704         0.47473
C         57.47981        57.08075         0.93058
C         56.20648        56.38217         0.61883
C         57.56800        58.58123         0.65565
C         56.28951        59.30108         0.33120
C         57.31525        61.53164        -0.13649
C         56.18527        60.66619         0.13844
C         57.47190        62.75691         0.41152
C         56.23803        63.47384         0.92244
C         57.48386        65.58842         0.38871
C         56.28017        64.94579         0.53148
C         57.55450        67.07854         0.63157
C         56.27897        67.80862         0.29728
C         57.56606        69.88136        -0.11980
C         56.32694        69.17242         0.05588
C         57.56286        71.31498        -0.35847
C         56.36440        72.05364        -0.41616
C         57.58245        74.15071        -0.64408
C         56.35105        73.47825        -0.50868
C         58.79490        55.02967         0.51190
C         59.99954        57.03033         1.43921
C         58.76159        56.32700         0.89263
C         60.09502        58.50226         1.07997
C         58.94549        59.15335         0.52160
C         60.24188        61.26742         0.41957
C         59.18011        60.42353         0.00894
C         60.12069        62.69206         0.37762
C         58.80389        63.44486         0.63309
C         60.02692        65.60980         0.22909
C         58.75143        64.83656         0.00012
C         59.99270        67.00442         0.04300
C         58.79348        67.74718         0.07956
C         60.04390        69.87252        -0.30370
C         58.79111        69.15950        -0.12209
C         60.03635        71.29846        -0.44438
C         58.80380        72.01285        -0.49591
C         60.05001        74.12439        -0.76203
C         58.80806        73.44113        -0.65003
C         61.29961        59.19053         1.18702
C         62.55047        61.39127         1.15585
C         61.40516        60.60574         0.93525
C         62.53330        62.78894         0.90218
C         61.28992        63.45165         0.56814
C         62.45908        65.61576         0.62178
C         61.26032        64.89784         0.45356
C         62.42755        67.08602         0.50564
C         61.29647        67.68294        -0.29959
C         62.50286        69.88544        -0.30962
C         61.26879        69.18602        -0.24303
C         62.48512        71.28362        -0.54861
C         61.26984        71.99800        -0.57760
C         62.51477        74.14003        -0.79028
C         61.27677        73.44119        -0.73343
C         63.70676        63.56488         1.07719
C         64.91139        65.72755         1.01542
C         63.69923        64.96778         0.92786
C         64.97024        67.10965         0.78009
C         63.70786        67.85473         0.57340
C         64.97143        69.86493        -0.05918
C         63.75678        69.21128        -0.01886
C         65.05267        71.24295        -0.57391
C         63.74162        71.99279        -0.81714
C         64.98953        74.13269        -0.73456
C         63.75522        73.46963        -0.77906
C         66.17292        67.84001         0.73874
C         67.37708        69.97488         0.46782
C         66.19655        69.22359         0.39996
C         67.41195        71.38244         0.19339
C         66.24749        72.04072        -0.28247
C         67.42642        74.17454        -0.26991
C         66.22187        73.44926        -0.47303
C         68.58983        72.14599         0.38587
C         68.58766        73.52044         0.13750
O         47.34801        40.77869         1.57105
O         28.26430        68.36216         2.72016
O         34.72879        54.33210         2.45343
O         53.16745        48.12684        -2.70322
O         41.47106        51.40503         0.89184
O         42.79583        54.40180         0.96855
O         41.93297        69.79103        -1.37892
O         47.09583        52.66800        -2.26668
O         43.04384        58.94158         1.49062
O         45.54190        35.79843        -1.05278
O         49.65854        67.35818        -1.88246
O         51.96614        46.54625         0.86936
O         31.44952        64.24711         3.10457
O         43.93886        38.13929        -1.85375
O         31.53349        68.84379         2.95129
O         39.22224        56.81312        -1.74405
O         39.63926        72.76526         2.88876
O         37.87856        67.68870        -0.72208
O         46.87691        58.75997         1.59854
O         49.40982        44.27455         1.48919
O         45.80645        65.38478        -2.00882
O         49.93930        62.19740         1.74324
O         57.42107        58.03239         2.04574
O         43.58854        64.19827        -1.97091
O         53.31085        50.68728        -2.41689
O         53.87788        59.84431        -1.20874
O         40.61197        54.55709        -1.89406
O         29.18240        60.69112         1.67590
O         58.31142        60.96166        -0.92926
O         35.10174        60.83635         2.68344
O         38.93866        69.24678         2.30402
O         34.64411        69.83032         3.06784
O         62.77551        67.79222         1.73204
O         64.51343        71.42138        -1.92721
O         37.61066        54.61704         1.84522
O         30.86312        72.13296         1.72129
O         37.86918        61.18769        -1.30781
O         56.82475        54.18171         1.64111
O         41.99888        41.58098        -2.14573
O         50.54380        47.88420        -2.38369
O         26.12620        69.53383         1.78600
H         26.82822        69.13757         2.39811
O         32.63285        61.24695         3.41842
H         33.52774        61.37690         3.80920
O         39.91067        43.96650        -2.42304
H         40.26932        43.09061        -2.68675
O         47.43498        70.06313        -2.29432
H         47.60017        69.15847        -2.64007
O         32.47250        56.73758         2.86955
H         33.21855        57.11582         3.38162
O         44.96324        45.92070         1.27722
H         45.75867        45.52845         1.69795
O         29.79173        71.39676        -1.67748
H         29.13257        71.69453        -2.34025
O         39.54475        70.70401        -0.96781
H         40.24942        70.65569        -1.65753
O         45.41121        69.94046         1.68583
H         45.28872        69.01361         1.98381
O         58.87429        63.69373         2.07573
H         59.03178        62.83825         2.52861
O         26.35570        72.33521         1.19677
H         26.21120        71.45888         1.64227
O         61.59291        67.32937        -1.69267
H         60.98430        67.83542        -2.27101
O         41.01371        70.75960         2.38523
H         40.72215        71.40643         3.09205
O         53.97876        72.01907        -2.14215
H         53.16423        72.40741        -2.52645
O         37.56873        71.50287         3.26707
H         38.29174        72.07835         3.65065
O         41.35255        60.61536        -1.95575
H         40.44052        60.46069        -2.28751
O         54.95053        69.60909        -1.75584
H         54.55789        70.39192        -2.21477
O         42.37475        45.87488         1.05422
H         43.23869        45.74520         1.51782
O         33.72320        72.52618         2.53203
H         33.90231        71.75443         3.12000
O         44.79271        53.67404        -2.27713
H         45.61354        53.56084        -2.81754
O         54.94439        71.64931         1.37892
H         55.78949        71.39635         1.80682
O         45.24353        53.44224         1.34706
H         44.35508        53.45326         1.77482
O         41.41227        47.02614        -2.21594
O         54.80837        58.74191         2.14801
H         55.64253        58.43866         2.58415
O         45.79638        39.91447        -2.20341
H         45.38016        39.12870        -2.63422
O         53.82701        69.40235         1.77651
H         53.79977        70.36786         1.98254
O         34.86634        52.91509        -0.84817
H         34.74010        52.03606        -1.26589
O         34.16353        51.77515         2.61002
H         34.25587        52.68731         2.98486
O         33.39442        70.97979        -0.78232
H         32.60128        70.68405        -1.27803
O         47.80639        57.24313        -1.62358
H         47.84061        56.35168        -2.03130
O         58.02242        53.18817        -1.69781
H         57.90931        52.38112        -2.24119
O         61.19138        56.34793         1.05479
H         61.34609        56.50262         0.10074
O         48.54469        56.24444         1.83002
H         49.31612        55.80449         2.24277
O         57.69637        67.18774         2.10385
H         57.68787        68.14229         2.32937
O         58.66768        64.61913        -1.43878
H         58.73573        65.48775        -1.88751
O         45.13374        60.96108        -1.93049
H         44.46826        61.50804        -2.40369
O         44.00233        46.00256        -2.27292
H         43.20037        46.35297        -2.72988
O         29.97922        66.78381         3.38548
H         29.18970        67.35181         3.65023
O         56.21012        63.48794         2.37677
H         57.04177        63.93439         2.66679
H         23.61668        74.92618        -2.72060
H         25.95911        74.98727        -1.92524
H         28.21661        75.12129        -1.05257
H         30.64314        75.11213        -0.78165
H         33.14927        75.02512        -0.63141
H         35.53221        75.05365        -0.21091
H         37.87601        75.17108         0.25130
H         40.21392        75.25359         0.20394
H         42.72514        75.38942         0.21019
H         45.22717        75.39849         0.06017
H         47.69199        75.37589        -0.15978
H         50.17084        75.33887        -0.19071
H         52.61198        75.32019        -0.15911
H         55.14632        75.29501        -0.32755
H         57.59796        75.24771        -0.72472
H         60.04636        75.21970        -0.86587
H         62.50043        75.24008        -0.82023
H         65.00499        75.23240        -0.77847
H         67.43167        75.26304        -0.42371
H         22.57714        69.09039        -2.02320
H         21.49413        71.16244        -2.91362
H         21.61076        73.60415        -3.38101
H         24.96972        65.04232        -0.94143
H         23.70222        67.06176        -1.24819
H         27.70247        61.22313        -1.28507
H         26.30077        63.05531        -0.89328
H         29.72891        56.60860        -0.30805
H         28.79406        58.60146        -0.89384
H         31.81328        52.20060         0.65331
H         30.71684        54.39608         0.19292
H         34.29043        47.80930         0.35115
H         33.06646        49.91330         0.73669
H         36.85048        43.55975         0.25424
H         35.54576        45.66930         0.20402
H         39.43622        39.32741         0.11321
H         38.15337        41.44471         0.23690
H         41.88198        35.24856         0.88256
H         40.67763        37.28481         0.32909
H         45.21857        32.19526         2.35581
H         43.08843        33.24686         1.66549
H         47.38584        33.37342         2.10742
H         48.66367        35.37932         1.36014
H         49.90923        37.37538         0.79146
H         51.10528        39.59017         0.57464
H         52.27752        41.69935         0.32556
H         53.49844        43.74964        -0.35134
H         54.86955        46.00428        -0.32990
H         56.04651        48.12959        -0.48631
H         57.27638        50.25853        -0.57989
H         58.39520        52.23405         0.13142
H         59.76360        54.50736         0.46195
H         59.93068        56.94767         2.55970
H         62.19114        58.64652         1.53170
H         63.47155        60.92851         1.53978
H         64.64975        63.05584         1.32697
H         65.84923        65.18338         1.20538
H         67.12214        67.33363         0.97043
H         68.30269        69.48481         0.80516
H         69.50685        71.64818         0.73155
H         69.51068        74.09826         0.28629
