         349
 CSIRO Nanostructure Databank - Neutral Graphene Oxide Data Set
C          1.31979         1.59004         0.12117
C          1.31410         2.80570         0.82914
C          2.47986         1.18739        -0.50679
C          2.43953         3.62872         0.80825
C          1.19991         6.69538         1.03092
C          1.11176         7.99177         0.64745
C          2.42893         5.95836         0.94528
C          2.27364         8.72709         0.12618
C          1.22853        10.83996         1.13761
C          1.24360        12.22558         1.32651
C          2.23804        10.20907         0.38104
C          2.38345        12.98888         1.02648
C          1.27671        15.28342         0.64824
C          1.38879        16.61619         0.51327
C          2.39703        14.47499         1.19869
C          2.59130        17.38755         1.02697
C          2.74460        18.73685         0.38120
C          3.65709         1.99545        -0.46824
C          3.62895         3.31694         0.10603
C          4.86428         1.43387        -0.91572
C          4.81827         4.16723         0.04543
C          3.59518         6.43818         0.38931
C          3.60839         7.87507        -0.03994
C          4.83209         5.63999         0.26427
C          4.92595         8.54665         0.09751
C          3.27651        11.05113        -0.05874
C          3.50570        12.34161         0.46064
C          5.08272         9.88708        -0.19630
C          4.86282        12.97956         0.43380
C          3.73563        15.14736         1.22204
C          3.85963        16.57126         0.92842
C          4.97187        14.29897         1.15349
C          5.13265        17.16939         0.86785
C          3.95881        19.28241         0.17465
C          5.19770        18.58609         0.49319
C          6.07888         2.13748        -0.75435
C          6.01040         3.51350        -0.29208
C          7.28420         1.53959        -1.15190
C          7.29914         4.23146        -0.35330
C          6.03770         6.34864         0.21819
C          6.11991         7.78904         0.39789
C          7.31538         5.69386        -0.10353
C          7.36171         8.44507         0.50421
C          6.13575        10.69802         0.37724
C          6.17291        12.19554         0.27895
C          7.41408         9.89671         0.72948
C          7.46671        12.80664         0.64183
C          6.30002        14.98399         1.31077
C          6.32431        16.44690         1.12296
C          7.61245        14.19710         1.20701
C          7.64754        17.15801         1.26747
C          6.40622        19.21385         0.36082
C          7.65456        18.55296         0.66017
C          8.59085         2.27436        -1.16755
C          8.54452         3.40513        -0.10637
C          9.77959         1.41960        -0.87811
C          9.81886         4.18662        -0.10706
C          8.60449         6.34995         0.17070
C          8.62588         7.74149         0.39578
C          9.81369         5.60103         0.09659
C          9.86799         8.43025         0.38725
C          8.67009        10.63994         0.60649
C          8.67093        12.04836         0.57279
C          9.96776         9.90184         0.72462
C          9.91400        12.76962         0.32262
C          8.78558        14.95493         0.63496
C          8.84208        16.35432         0.77069
C          9.93354        14.20007         0.27878
C         10.04769        17.03154         0.53522
C          8.84088        19.18829         0.47787
C         10.13287        18.50805         0.85951
C         11.00104         2.01738        -0.53370
C         11.04901         3.46876        -0.22965
C         12.18421         1.27544        -0.51987
C         12.26373         4.10152        -0.01323
C         11.04985         6.29726         0.18097
C         11.06014         7.69730         0.22357
C         12.31923         5.53469         0.44884
C         12.31535         8.39388        -0.16264
C         11.09016        10.64003         0.03242
C         11.07702        12.01538        -0.06081
C         12.29209         9.87914        -0.37183
C         12.22588        12.71665        -0.76547
C         11.15575        14.89633        -0.04216
C         11.19842        16.31867         0.10073
C         12.32118        14.18890        -0.43225
C         12.39182        17.02129        -0.24631
C         11.32866        19.18344         0.26222
C         12.41472        18.48732        -0.21229
C         13.51408         1.95868        -0.58396
C         13.52653         3.30121         0.17399
C         14.68468         1.10190        -0.08507
C         14.77882         4.06690        -0.17466
C         13.59281         6.25118         0.02910
C         13.61690         7.68731        -0.07762
C         14.74979         5.49333        -0.16988
C         14.79234         8.41768        -0.26954
C         13.57712        10.60212        -0.46857
C         13.56094        11.99922        -0.62846
C         14.80094         9.86692        -0.45130
C         14.76024        12.70174        -0.86503
C         13.51444        14.88006        -0.71502
C         13.51483        16.30653        -0.67136
C         14.75336        14.15045        -1.00592
C         14.67004        17.04372        -1.21430
C         13.59843        19.18880        -0.61936
C         14.74918        18.51305        -1.02614
C         15.97772         1.89994        -0.13028
C         15.97541         3.33580        -0.32541
C         17.17441         1.26089         0.04117
C         17.22611         3.96603        -0.65566
C         16.04548         6.18468        -0.29077
C         16.07575         7.68450        -0.29809
C         17.17232         5.43084        -0.92735
C         17.29193         8.37126        -0.80366
C         16.01337        10.57940        -0.58624
C         16.01959        11.99272        -0.88086
C         17.29270         9.83567        -0.56979
C         17.21483        12.67470        -1.20431
C         15.92460        14.82413        -1.30057
C         15.91819        16.27893        -1.54862
C         17.20297        14.11153        -1.67385
C         17.26612        16.99554        -1.71144
C         15.97502        19.16858        -1.23642
C         17.21527        18.45895        -1.28346
C         18.45679         1.91540        -0.09364
C         18.44679         3.27145        -0.67271
C         19.53879         1.24771         0.48775
C         19.66075         4.02981        -0.92140
C         18.38561         6.20633        -1.32316
C         18.42093         7.68884        -1.14901
C         19.67830         5.43554        -1.53123
C         19.65420         8.41184        -1.59458
C         18.56768        10.58252        -0.69277
C         18.51643        12.10993        -0.68038
C         19.72330         9.90160        -1.37055
C         19.77554        12.72049        -1.20693
C         18.45566        14.86287        -1.25108
C         18.43681        16.23000        -1.10326
C         19.77109        14.17681        -1.51710
C         19.65989        16.94939        -0.81035
C         18.35033        19.10912        -0.86456
C         19.57695        18.39020        -0.38169
C         20.91958         1.58673         0.27056
C         20.91142         3.47239        -0.82993
C         22.03447         1.52753         1.06266
C         22.04280         4.26262        -0.22798
C         20.95191         6.22811        -1.24799
C         20.95398         7.63816        -1.70232
C         22.13750         5.61317        -0.91808
C         22.27280         8.40179        -1.61782
C         21.01203        10.61682        -1.34464
C         20.99975        12.02300        -1.22126
C         22.27295         9.90542        -1.56063
C         22.23655        12.77148        -1.02354
C         20.97504        14.88172        -0.96031
C         20.88334        16.29638        -0.71945
C         22.15671        14.18260        -0.78564
C         22.12417        17.03819        -0.51158
C         20.87262        19.14595        -0.52390
C         22.07996        18.50424        -0.46747
C         23.28513         2.20301         0.66718
C         23.29576         3.46569         0.04115
C         24.51263         1.55160         0.97099
C         24.59139         4.10795        -0.26052
C         23.40174         6.32294        -0.93479
C         23.48028         7.67292        -1.18121
C         24.63709         5.53819        -0.73546
C         24.72702         8.40992        -0.79665
C         23.53582        10.66005        -1.20539
C         23.45733        12.09385        -0.85405
C         24.72146         9.90102        -0.70828
C         24.66922        12.77883        -0.54313
C         23.32531        14.88300        -0.14451
C         23.31579        16.36443        -0.44041
C         24.65300        14.18395        -0.33212
C         24.57906        17.11424        -0.36467
C         23.32595        19.22279        -0.23779
C         24.51844        18.56755        -0.09392
C         25.77733         2.18696         0.85350
C         25.81496         3.65676         0.52209
C         26.97504         1.59427         1.17921
C         27.13151         4.11876        -0.09256
C         25.95732         6.21968        -0.76350
C         26.05652         7.69875        -0.92113
C         27.04361         5.37593        -0.81471
C         27.33128         8.50501        -0.62152
C         25.97039        10.66495        -0.51583
C         25.92615        12.05994        -0.44282
C         27.16166         9.90277         0.00138
C         27.14564        12.80353        -0.21746
C         25.84204        14.88199        -0.13323
C         25.84271        16.36776        -0.11642
C         27.11164        14.22206        -0.11473
C         26.95045        17.03258         0.66672
C         25.77311        19.22176         0.24181
C         26.91013        18.54251         0.54924
C         28.20889         2.43798         1.35595
C         28.31993         3.59572         0.36362
C         29.45112         1.58747         1.46602
C         29.68516         4.25528         0.28660
C         28.87157         6.51282        -0.41304
C         28.60052         7.85657        -0.17460
C         29.79479         5.75029         0.33004
C         29.62941         8.58535         0.49957
C         28.44207        10.70466        -0.00983
C         28.38829        12.09446        -0.11222
C         29.63819        10.02160         0.40696
C         29.63544        12.87313        -0.10867
C         28.31780        14.99918         0.02230
C         28.28178        16.40899         0.29520
C         29.58822        14.33441         0.00115
C         29.45057        17.16382         0.34941
C         28.13908        19.27582         1.02697
C         29.43713        18.55602         0.70946
C         30.67324         2.11111         1.32824
C         30.84974         3.52672         0.90777
C         31.87877         4.31934         1.61236
C         30.78595         6.43930         1.04549
C         30.75827         7.88546         1.03471
C         31.82870         5.67166         1.69912
C         31.84449         8.65674         1.52974
C         30.81257        10.72923         0.76144
C         30.93739        12.15354         0.38605
C         31.87726        10.03193         1.37653
C         31.97515        13.03411         0.91062
C         30.78444        15.04861         0.16333
C         30.75148        16.53498        -0.12316
C         31.94601        14.38362         0.65542
C         31.97408        17.30419         0.29788
C         30.62022        19.24699         0.86154
C         31.89125        18.59944         0.68848
O         12.09434         8.96522        -1.52049
O         25.57847        16.86843        -1.46137
O          5.54396        12.89705        -0.85801
O         17.37249         5.81488        -2.33650
O         30.64447        12.37864        -1.02767
O          6.45966        10.33509         1.76246
O          2.38644         4.74624         1.64132
O         24.72974         4.37594        -1.68431
O          7.35831         5.12269        -1.51918
O         14.96555        16.64903        -2.60218
O          4.16582        10.54443        -1.01622
O         17.60985        16.90972        -3.08150
O         21.73514         7.90807        -2.89216
O         30.73110         3.65941        -0.55554
O          2.77454         8.25861        -1.16215
O          5.58358        14.36148         2.48222
O          2.92809        14.91631         2.48981
O         21.12272         2.12074        -1.02476
O         18.20840        10.06447         0.62715
O         16.39790         6.91303         0.93318
O         26.89079         8.27857        -1.98351
O         19.38616         9.33397        -2.69434
O         23.17229        10.44527        -2.60479
O         24.44621         9.05400         0.52005
O         28.20243         5.83806        -1.43185
O         14.80388        -0.06638        -0.89570
H         14.78462         0.23929        -1.82862
O         19.35306        18.33057         1.09285
H         20.20545        18.07437         1.50645
O          8.39640         2.73915         1.17765
H          8.78565         3.30728         1.87434
O          7.86376        17.32830         2.71761
H          7.04742        17.72104         3.09438
O         28.05249         3.11065         2.67800
H         27.98493         2.40480         3.35657
O         17.22920        14.18524        -3.15534
H         17.26190        15.17687        -3.36439
O         11.88268        12.65717        -2.18782
H         12.60757        13.08588        -2.69094
O         12.38936         5.47184         1.92612
H         12.85131         4.62618         2.15457
O          8.06085        13.94397         2.58556
H          7.24528        13.76160         3.11103
O         10.28053        18.62563         2.31324
H          9.49603        18.16952         2.71478
O         26.69192        16.69952         2.06552
H         27.46260        16.98829         2.59723
O          2.35508        17.61993         2.45526
H          2.42971        16.73158         2.88553
O         19.79134         5.18272        -2.95863
H         18.87737         5.19448        -3.32919
O         23.08986        14.78791         1.31501
H         22.16386        15.06495         1.48411
O         21.52320         4.59600         1.12523
H         22.28076         4.90236         1.66943
O          8.77257         2.88744        -2.47614
H          8.23566         3.71383        -2.51145
O         18.53202        12.55250         0.72871
H         18.28746        11.75201         1.26147
O         10.33393         9.91684         2.16707
H         10.09720        10.80018         2.52419
O         19.92469        14.24802        -2.98673
H         19.02060        14.10448        -3.37708
O         28.17500        20.61850         0.54027
H         28.21910        20.58989        -0.43726
O         13.78220         2.21760        -1.99322
H         12.98652         2.63384        -2.38749
O         25.71488         4.37806         1.79138
H         26.48050         4.07557         2.34643
O         13.60025         3.00228         1.62073
H         14.54432         3.01665         1.88791
O         30.72482        16.63631        -1.59658
H         30.67756        17.58948        -1.82191
O         26.90426         9.64799         1.42826
H         25.95502         9.37354         1.50281
H          0.42540         0.95285         0.11162
H          0.43614         3.11196         1.41197
H          2.53510         0.20798        -1.00208
H          0.33116         6.18436         1.46771
H          0.16464         8.52668         0.80130
H          0.37588        10.27267         1.53200
H          0.37916        12.71500         1.79511
H          0.37633        14.75562         0.29796
H          0.54986        17.19193         0.09214
H          1.83244        19.30410         0.14200
H          4.86975         0.42294        -1.34797
H          4.04626        20.29499        -0.24868
H          7.24860         0.51692        -1.55868
H          6.44642        20.25847         0.01597
H          9.72148         0.32656        -0.99447
H          8.86332        20.22251         0.10022
H         12.14770         0.19748        -0.74329
H         11.36837        20.28289         0.30591
H         14.48223         0.76319         0.96457
H         13.61918        20.28482        -0.51948
H         17.17137         0.18460         0.27021
H         16.00312        20.26730        -1.15113
H         19.30804         0.39047         1.14074
H         18.26069        20.16123        -0.54198
H         22.00998         1.00428         2.02981
H         20.83442        20.24342        -0.44341
H         24.47929         0.52019         1.35184
H         23.27487        20.31332        -0.09663
H         27.00718         0.53981         1.49537
H         25.79141        20.32332         0.27280
H         29.32452         0.53033         1.74831
H         28.06625        19.35289         2.15184
H         31.57523         1.49609         1.47331
H         32.65306         3.76603         2.16585
H         32.59661         6.19788         2.28304
H         32.71431         8.15478         1.97431
H         32.77294        10.58175         1.69737
H         32.80106        12.61104         1.49986
H         32.80344        14.99338         0.97478
H         32.96036        16.85089         0.12386
H         30.59012        20.30651         1.15131
H         32.80465        19.17519         0.89715
