         324
 CSIRO Nanostructure Databank - Neutral Graphene Oxide Data Set
C          1.33818         2.43878        -1.75887
C          1.31336         3.80870        -1.33295
C          2.46197         1.66879        -1.66099
C          2.39673         4.39621        -0.71957
C          1.25654         6.55771        -0.32269
C          1.24477         7.90073         0.03183
C          2.44693         5.80326        -0.33466
C          2.44064         8.55151         0.37748
C          1.31326        10.38959         1.69965
C          1.46205        11.45992         2.52251
C          2.41570         9.97752         0.82675
C          2.66011        12.25587         2.55417
C          1.61411        15.35535         3.31019
C          1.61138        16.71894         2.89883
C          2.70629        14.55421         3.10338
C          2.73567        17.30012         2.35552
C          2.69694        18.64910         1.85282
C          3.68123         2.20562        -1.09950
C          3.60837         3.57877        -0.52039
C          4.84278         1.49029        -1.05191
C          4.90040         4.28609        -0.24707
C          3.67849         6.45168         0.01496
C          3.64859         7.83767         0.33470
C          4.94318         5.74555        -0.01231
C          4.88110         8.49653         0.81991
C          3.71385        10.75034         0.96879
C          3.79601        11.98219         1.80724
C          4.96561         9.97931         0.85290
C          5.04891        12.73682         1.75909
C          4.01645        15.05849         2.65600
C          4.02224        16.56347         2.33357
C          5.17401        14.17105         2.19514
C          5.14933        17.14788         1.57351
C          3.80024        19.24060         1.32297
C          5.04703        18.52123         1.16661
C          6.12460         2.08930        -0.51315
C          6.10914         3.61442        -0.86158
C          7.36780         1.40420        -1.03606
C          7.41804         4.32425        -0.52274
C          6.17253         6.33123         0.32829
C          6.14566         7.69815         0.90800
C          7.43385         5.63982         0.19338
C          7.43646         8.44382         1.07550
C          6.15874        10.64869         0.96214
C          6.17102        12.09909         1.19379
C          7.42345         9.91927         0.83288
C          7.38384        12.81025         0.84120
C          6.39674        14.94528         1.65456
C          6.31898        16.41357         1.34373
C          7.44184        14.17820         0.94177
C          7.42124        17.07249         0.70539
C          6.15010        19.17358         0.62755
C          7.36539        18.47740         0.41490
C          8.58239         2.01642        -0.93156
C          8.63693         3.46646        -0.58241
C          9.83977         1.35895        -1.20794
C          9.85091         3.98421         0.08099
C          8.68180         6.20496         0.57027
C          8.72229         7.67460         0.98081
C          9.88132         5.41420         0.44776
C          9.90267         8.53119         0.64846
C          8.55554        10.58846         0.43946
C          8.46481        12.05076         0.07697
C          9.81953         9.89186         0.27435
C          9.82582        12.70867         0.04551
C          8.68582        14.92413         0.62601
C          8.60897        16.37258         0.34235
C          9.89442        14.16781         0.18818
C          9.69165        17.03426        -0.23493
C          8.51080        19.15694        -0.06009
C          9.70126        18.46819        -0.35985
C         11.06673         1.95396        -0.96016
C         11.14026         3.24370        -0.22582
C         12.31642         1.33548        -1.28485
C         12.38320         4.02852        -0.32888
C         11.19352         5.84436         0.75684
C         11.18926         8.02272         0.81924
C         12.38527         5.37669         0.14594
C         12.34015         8.54427         0.23675
C         11.01553        10.57235        -0.10914
C         10.98416        12.01933        -0.25963
C         12.26317         9.89239        -0.20606
C         12.20515        12.73002        -0.62374
C         10.98496        14.86417        -0.50504
C         10.82597        16.28085        -0.80103
C         12.14772        14.16398        -0.81681
C         12.08944        17.06316        -1.25331
C         10.90508        19.16615        -0.66832
C         12.13108        18.52208        -0.96590
C         13.51794         2.02762        -1.19111
C         13.52143         3.41429        -0.84917
C         14.81496         1.31036        -1.51351
C         14.72177         4.25468        -1.15897
C         13.58450         6.21489         0.02460
C         13.58804         7.71671         0.25995
C         14.73909         5.61276        -0.46588
C         14.79850         8.50054        -0.21916
C         13.46421        10.59976        -0.61387
C         13.40032        12.03052        -0.86004
C         14.67903         9.91577        -0.65765
C         14.58268        12.74980        -1.28157
C         13.34105        14.89428        -1.19421
C         13.33041        16.29427        -1.29755
C         14.55017        14.13383        -1.39698
C         14.55965        17.06589        -1.55208
C         13.35063        19.20372        -0.92145
C         14.60748        18.58431        -1.34503
C         16.07013         2.09499        -1.17485
C         16.01442         3.47874        -1.07067
C         17.29905         1.39440        -0.99516
C         17.24705         4.25422        -1.14896
C         15.97429         6.35942        -0.64214
C         15.96653         7.74718        -0.65984
C         17.22446         5.68277        -0.86736
C         17.18340         8.46838        -1.16607
C         15.90646        10.60106        -0.96442
C         15.85267        11.99814        -1.48198
C         17.11994         9.94374        -0.91215
C         17.14513        12.71082        -1.85003
C         15.74451        14.88408        -1.84806
C         15.84047        16.31771        -1.41959
C         17.02648        14.19392        -2.13995
C         17.14004        17.04768        -1.34071
C         15.93096        19.21771        -1.17105
C         17.13796        18.53571        -1.32630
C         18.52628         2.04586        -0.76835
C         18.59831         3.49706        -1.00549
C         19.71693         1.39018        -0.37105
C         19.76355         4.25123        -0.55403
C         18.44617         6.39477        -0.66020
C         18.41887         7.79278        -0.65287
C         19.70584         5.68393        -0.45624
C         19.53602         8.56711        -0.13422
C         18.34959        10.72273        -0.68834
C         18.40050        12.15117        -1.18285
C         19.61886        10.02268        -0.34845
C         19.75766        12.77191        -1.15755
C         18.22277        15.06473        -2.22354
C         18.36528        16.33956        -1.80060
C         20.05813        13.96874        -1.73195
C         19.71266        17.05106        -1.95950
C         18.40255        19.17572        -1.34614
C         19.65271        18.50257        -1.47784
C         20.92449         2.09592        -0.15734
C         20.93679         3.54333        -0.21271
C         22.14883         1.43412         0.12704
C         22.16062         4.24814        -0.01440
C         20.87088         6.39912        -0.18663
C         20.84320         7.82472         0.12590
C         22.16437         5.70751        -0.18802
C         22.09319         8.60614         0.28781
C         20.76914        10.71561        -0.05611
C         20.72716        12.20135        -0.16985
C         22.02369        10.06284         0.33505
C         21.97486        12.98081         0.11509
C         21.03669        14.90977        -1.22705
C         20.89286        16.28204        -1.33914
C         22.15421        14.30570        -0.51133
C         22.09943        17.05980        -0.94945
C         20.82996        19.21569        -1.29891
C         22.13133        18.55474        -1.09168
C         23.34299         2.13736         0.34336
C         23.35783         3.57927         0.28091
C         24.57645         1.45613         0.59446
C         24.57206         4.30867         0.57583
C         23.39694         6.48905         0.22883
C         23.25880         7.92254         0.55408
C         24.58408         5.72791         0.66702
C         24.39663         8.61580         1.18763
C         23.16329        10.79343         0.67605
C         23.19675        12.27123         0.62979
C         24.37666        10.11209         1.18346
C         24.55326        12.97822         0.51457
C         23.37459        14.94455        -0.52488
C         23.38557        16.30308        -1.11027
C         24.59955        14.31329        -0.14031
C         24.67498        17.02722        -1.24363
C         23.42588        19.21157        -1.27116
C         24.65985        18.52021        -1.23537
C         25.75059         2.14251         0.85272
C         25.76078         3.59689         0.90756
C         27.00106         1.43542         0.99019
C         26.93628         4.29598         1.25272
C         25.75204         6.41821         1.03333
C         25.70706         7.87110         1.34319
C         26.95733         5.71336         1.28032
C         26.97845         8.63093         1.32454
C         25.75438        10.82884         1.16136
C         25.80485        12.19165         0.59999
C         26.99663        10.01506         1.14829
C         27.01869        12.76129         0.25270
C         25.81709        14.92241        -0.43865
C         25.91436        16.29132        -0.88321
C         27.05202        14.11954        -0.34456
C         27.12782        16.97414        -0.90766
C         25.89132        19.16211        -1.23084
C         27.17690        18.39803        -1.42749
C         28.16199         2.08505         1.31365
C         28.11123         3.51809         1.79314
C         29.43419         1.40506         1.32700
C         29.42285         4.24795         1.64859
C         28.17236         6.47415         1.54343
C         28.19939         7.86065         1.45977
C         29.41628         5.70787         1.83273
C         29.47511         8.63883         1.75039
C         28.25651        10.71932         0.94714
C         28.26399        12.07963         0.50278
C         29.47112        10.03456         1.16185
C         29.51018        12.80383         0.44287
C         28.36744        14.86693        -0.38188
C         28.34456        16.33467        -0.50917
C         29.55870        14.20483         0.17044
C         29.50777        17.06812        -0.25533
C         28.37403        19.15160        -0.92385
C         29.48132        18.51814        -0.40955
C         30.59955         2.09787         1.45456
C         30.60940         3.54640         1.56295
C         31.87067         4.24755         1.43816
C         30.76268         6.42810         1.73661
C         30.74171         7.87107         1.42207
C         31.94336         5.60064         1.44442
C         31.89040         8.54904         1.07487
C         30.71463        10.69934         0.96071
C         30.72794        12.13029         0.73872
C         31.90629         9.95121         0.92450
C         31.92064        12.88363         0.84674
C         30.73581        14.95463         0.35256
C         30.71847        16.41454         0.18392
C         31.91962        14.25934         0.70662
C         31.82624        17.19747         0.48194
C         30.66082        19.26543        -0.04611
C         31.79016        18.61624         0.37371
O         23.78594        12.95782         1.76988
O          4.45622        16.06145         3.63734
O         18.07662        11.85338         0.22348
O         19.91882         8.15281         1.22837
O         18.08924         3.91460        -2.31376
O         27.84507        14.17581        -1.58032
O          8.14907         8.00640         2.28591
O         24.95166        10.69258         2.37674
O         14.49083        17.94049        -2.69585
O         14.54003         8.24268         1.22750
O         16.50827        16.47106        -0.12464
O         23.10852         6.22231        -1.20512
O         20.85812        12.93591         1.08593
O          6.32127        14.47354         3.03915
O         24.00469        16.43488        -2.43184
O         10.48161         3.14541         1.09208
O         30.13157         6.14410         3.04833
O         19.30995        14.41641        -2.83248
O         11.07939        16.63251        -2.20496
O          9.74613        14.61229         1.61925
O         22.04519        17.82803         0.28129
O         11.33619         6.90782         1.63439
O          4.19097         3.61239         0.84832
O         16.45655        11.94346        -2.85609
O         24.79749         8.08369         2.49105
O         16.10967        14.56288        -3.23080
O          5.30042         7.85709         2.09731
O          2.86421        10.90097        -0.23072
O          2.59857        13.23874         3.53543
O          8.29960         4.34807        -1.72080
O         17.18666         8.34427        -2.64318
H         17.30586         7.39235        -2.85178
O         27.87695         3.44564         3.24599
H         28.67664         3.05072         3.65388
O         19.99804        17.14334        -3.38123
H         19.95915        16.23052        -3.74585
O         29.50808         8.82621         3.20852
H         29.62108         7.92369         3.59755
O         14.82120         0.01951        -0.89365
H         14.69496         0.13836         0.06985
O          8.00874        12.09991        -1.32679
H          8.65624        11.60170        -1.86987
O          6.19569         1.91681         0.92135
H          5.37149         2.30824         1.30446
O         27.34548        18.28962        -2.89328
H         26.61528        17.72405        -3.22714
O         14.58034         4.59809        -2.59342
H         15.45716         4.90333        -2.91215
O          5.89618         3.73392        -2.28693
H          6.78865         3.83797        -2.69742
H          0.42616         2.02047        -2.20733
H          0.40016         4.38537        -1.53435
H          2.46325         0.63238        -2.02826
H          0.30299         6.07418        -0.57256
H          0.29313         8.44928         0.05068
H          0.42524         9.74720         1.78609
H          0.66097        11.73891         3.22050
H          0.70569        14.91516         3.74030
H          0.68099        17.29875         2.97553
H          1.75060        19.20350         1.93404
H          4.85633         0.45352        -1.42344
H          3.76123        20.28232         0.97436
H          7.30854         0.34120        -1.31740
H          6.08032        20.23748         0.35854
H          9.80934         0.34385        -1.63238
H          8.46686        20.24813        -0.19136
H         12.32076         0.29700        -1.64791
H         10.89649        20.26393        -0.59248
H         14.84656         1.12177        -2.62322
H         13.37262        20.23970        -0.55068
H         17.25846         0.29541        -0.95649
H         15.95311        20.30535        -1.00026
H         19.70968         0.29669        -0.24743
H         18.43018        20.26546        -1.18530
H         22.16271         0.33441         0.16532
H         20.77089        20.29872        -1.10174
H         24.58664         0.35587         0.57383
H         23.43929        20.30255        -1.41525
H         27.01964         0.35832         0.76133
H         25.93303        20.26188        -1.23963
H         29.44841         0.31582         1.17227
H         28.39413        20.24212        -1.07254
H         31.56547         1.57380         1.42542
H         32.77535         3.65016         1.25294
H         32.90161         6.09215         1.22645
H         32.83619         8.00608         0.93798
H         32.86382        10.44215         0.70898
H         32.86344        12.38040         1.09978
H         32.86277        14.80437         0.84338
H         32.75955        16.73392         0.82830
H         30.64199        20.36080        -0.13712
H         32.69161        19.18822         0.63435
