         234
 CSIRO Nanostructure Databank - Neutral Graphene Oxide Data Set
C          1.25576         2.27183         0.81793
C          1.30268         3.66722         1.05685
C          2.41703         1.54334         0.70533
C          2.51353         4.32913         1.17894
C          1.33529         6.57343         1.47046
C          1.28189         7.85670         1.05181
C          2.61121         5.79184         1.59866
C          2.42461         8.57226         0.52554
C          1.28112        10.79049         0.63403
C          1.28588        12.15504         0.48682
C          2.40483         9.94538         0.32017
C          2.40811        12.91142         0.00099
C          1.45188        15.11385         0.66046
C          1.50703        16.46696         0.73517
C          2.43263        14.30834        -0.03940
C          2.52429        17.25900         0.01161
C          2.73909        18.67453         0.38186
C          3.68974         2.18247         0.81487
C          3.73900         3.59876         1.06049
C          4.87435         1.44587         0.61478
C          4.99957         4.27152         1.14647
C          3.80030         6.44802         0.92266
C          3.59313         7.71591         0.06828
C          4.97690         5.74275         0.92496
C          4.85804         8.52994        -0.13735
C          3.58854        10.62567        -0.26397
C          3.60083        12.13120        -0.42093
C          4.87321         9.88493        -0.22249
C          4.88841        12.83251        -0.45418
C          3.56934        15.00922        -0.68641
C          3.61950        16.51911        -0.69334
C          4.87985        14.23946        -0.79230
C          4.92119        17.23706        -1.10547
C          3.89286        19.31094         0.07927
C          5.03347        18.63754        -0.51278
C          6.13237         2.06966         0.71695
C          6.17518         3.46278         1.08720
C          7.35289         1.38480         0.42882
C          7.49166         3.99605         1.23949
C          6.17313         6.39361         0.30923
C          6.11375         7.78983        -0.32355
C          7.50672         6.08765         0.76787
C          7.38298         8.49224        -0.56487
C          6.16170        10.63026        -0.27227
C          6.17095        12.14279        -0.33368
C          7.39276         9.92141        -0.68142
C          7.40483        12.83375        -0.79663
C          6.16286        14.98842        -0.64343
C          6.19660        16.46586        -0.77330
C          7.41319        14.24098        -0.89525
C          7.50463        17.13232        -1.04572
C          6.25159        19.24929        -0.54273
C          7.48089        18.55296        -0.88006
C          8.58883         2.05535         0.33182
C          8.63185         3.45898         0.67769
C          9.81782         1.38248         0.03468
C          9.80581         4.27776         0.12884
C          8.66338         6.54013         0.18317
C          8.58535         7.76757        -0.54145
C          9.95511         5.80271         0.51948
C          9.81321         8.38670        -1.03662
C          8.55227        10.62971        -0.98872
C          8.58114        12.07654        -1.05263
C          9.77730         9.89119        -1.34386
C          9.72418        12.74591        -1.58334
C          8.56267        14.94028        -1.34157
C          8.69826        16.41453        -1.28684
C          9.58976        14.11786        -1.84718
C          9.98173        17.12969        -1.27492
C          8.68667        19.22388        -0.79924
C          9.92199        18.52530        -0.87773
C         11.07091         2.03103         0.09959
C         11.09818         3.50172         0.33936
C         12.29167         1.34933        -0.04270
C         12.38155         4.24065         0.08807
C         11.14741         6.39720        -0.21835
C         11.10926         7.75736        -0.74467
C         12.29590         5.66105        -0.33664
C         12.27594         8.47536        -0.98643
C         11.06267        10.61039        -1.39525
C         11.02547        12.03529        -1.76474
C         12.26071         9.91697        -1.25820
C         12.40163        12.80785        -1.71167
C         11.52822        15.23688        -1.96288
C         11.32662        16.60323        -1.47093
C         12.52511        14.30231        -1.66980
C         12.44454        17.38186        -1.02208
C         11.04141        19.24047        -0.40669
C         12.30435        18.63377        -0.32988
C         13.56125         2.01543        -0.11906
C         13.60235         3.44988        -0.18151
C         14.77303         1.30882        -0.27555
C         14.80553         4.11079        -0.40197
C         13.49316         6.28150        -0.94193
C         13.54243         7.76304        -0.97177
C         14.78728         5.51524        -0.86375
C         14.73310         8.44605        -0.98653
C         13.49197        10.66602        -1.06638
C         13.53790        12.04924        -1.11885
C         14.66830         9.88190        -0.60062
C         14.67925        12.78689        -0.47134
C         13.86768        14.78348        -1.51974
C         13.79743        16.92584        -1.12988
C         14.87369        14.19699        -0.82193
C         14.79517        17.26916        -0.23300
C         13.41967        19.22380         0.32410
C         14.64012        18.52146         0.46451
C         16.02119         1.97970        -0.38664
C         16.04411         3.41093        -0.41634
C         17.26501         1.29890        -0.49046
C         17.28617         4.12770        -0.37059
C         16.08399         6.25615        -0.89621
C         16.03597         7.75320        -1.02750
C         17.18983         5.61241        -0.05696
C         17.30595         8.53451        -0.76877
C         15.89012        10.56649        -0.08185
C         15.90532        12.05838         0.03586
C         17.21001         9.85144        -0.06637
C         17.20817        12.76987         0.18164
C         16.16542        14.99077        -0.58689
C         15.87261        16.29871         0.24779
C         17.23095        14.17495         0.14702
C         17.13716        17.02022         0.63617
C         15.78974        19.06733         1.08593
C         17.04907        18.39117         1.04993
C         18.47769         2.00216        -0.50592
C         18.48467         3.43650        -0.37325
C         19.73496         1.31781        -0.64288
C         19.77859         4.12658        -0.00687
C         18.56359         6.40244         0.02036
C         18.59332         7.79902        -0.62475
C         19.81935         5.60892        -0.27115
C         19.85451         8.56504        -0.30292
C         18.43929        10.56417         0.39892
C         18.39463        12.04840         0.51776
C         19.77754         9.93187         0.23153
C         19.58153        12.72159         0.81847
C         18.39396        14.87301         0.54991
C         18.35078        16.31270         0.74731
C         19.58781        14.15179         0.86123
C         19.53156        16.98913         1.18030
C         18.22466        19.05389         1.46164
C         19.46824        18.38488         1.49705
C         20.93674         2.00179        -0.68557
C         21.00742         3.39982        -0.48252
C         22.21410         4.12120        -0.57927
C         21.04207         6.26001        -0.25550
C         21.13235         7.75950        -0.14474
C         22.24746         5.49955        -0.41170
C         22.18273         8.42405         0.63845
C         20.90470        10.54214         0.71927
C         20.80786        11.95209         1.28669
C         22.09744         9.75124         0.94284
C         22.06345        12.76343         1.09474
C         20.80175        14.86335         1.11276
C         20.77474        16.28742         1.30200
C         22.03845        14.11901         1.10605
C         21.93038        17.01486         1.67486
C         20.65715        19.06682         1.87665
C         21.86547        18.38546         1.94581
O          6.34754        11.42338         0.96467
O         17.65067         9.74595         1.34729
O         10.46857        14.73885        -2.72471
O          2.48774        17.04647        -1.46399
O          6.01261         6.56654        -1.13839
O         14.03393         5.60305        -2.12464
O         16.68807        15.22125        -1.84249
O         14.93626         9.97133         0.85850
O         11.89144         3.95000         1.46350
O          7.59325         5.24658         1.88308
O          9.65748         8.89320        -2.40506
O          4.02804        14.50511        -1.97686
O         14.87760        12.52581         0.96439
O         14.09155        16.01628        -2.13534
O          6.16722        15.84350         0.56385
O         11.83856        12.29566        -2.94704
O         16.29963         6.85353        -2.17644
O         20.82443         8.44086        -1.40139
O         18.17539         8.29518        -1.93050
O          3.36245        11.22227        -1.58836
O         18.74187         6.76244         1.43468
H         18.07437         7.44703         1.67774
O         20.67004        11.77269         2.73732
H         20.50508        12.65532         3.13110
O         15.30988        15.77002         1.49367
H         15.19478        16.52013         2.11524
O          4.89549        17.37094        -2.54142
H          3.95593        17.50959        -2.79934
O         16.59188         5.67382         1.26776
H         17.15152         5.15414         1.88368
O         10.22509         5.94547         1.91860
H          9.44357         5.60945         2.41295
O          2.89753         5.76561         3.03636
H          3.69195         5.20559         3.16943
O          9.56109         4.31375        -1.30212
H          9.44351         3.39424        -1.62238
O          3.21926         7.17632        -1.23443
H          4.03304         6.76380        -1.61102
O         19.82496         4.04672         1.48515
H         19.52109         4.91706         1.83565
H          0.27957         1.77612         0.72520
H          0.35579         4.21649         1.14757
H          2.38165         0.46002         0.52126
H          0.42401         6.11621         1.88306
H          0.31738         8.38288         1.10862
H          0.36060        10.32316         1.01061
H          0.36260        12.69670         0.73629
H          0.65371        14.59331         1.20820
H          0.76552        17.01191         1.33773
H          1.92632        19.20462         0.89946
H          4.81071         0.38242         0.34149
H          4.02847        20.36396         0.37095
H          7.30968         0.30707         0.21268
H          6.34451        20.29197        -0.19937
H          9.78957         0.30004        -0.16188
H          8.70236        20.29528        -0.55074
H         12.27440         0.25341        -0.14649
H         10.89451        20.25936        -0.01944
H         14.75733         0.20860        -0.28514
H         13.31164        20.22392         0.76816
H         17.27884         0.19928        -0.52934
H         15.74349        20.07635         1.52180
H         19.72425         0.22594        -0.77419
H         18.17384        20.11238         1.75686
H         21.86747         1.45022        -0.88768
H         23.14399         3.57950        -0.80854
H         23.20782         6.03117        -0.46162
H         23.03885         7.83425         0.99800
H         22.91894        10.21320         1.50945
H         23.03200        12.24299         1.07550
H         22.98903        14.67007         1.06411
H         22.89576        16.50166         1.77802
H         20.60943        20.13946         2.11252
H         22.77994        18.92136         2.23598
