         600
 CSIRO Nanostructure Databank - Neutral Graphene Oxide Data Set
C         23.01237        27.54617        -1.41895
C         23.00460        28.89415        -1.14824
C         23.00038        31.73812        -0.45251
C         23.00002        33.07919        -0.14190
C         22.99856        35.94412         0.37219
C         22.99059        37.30364         0.59397
C         22.98663        40.17529         1.07803
C         22.96920        41.55316         1.09662
C         22.96097        44.46251         0.76994
C         22.96740        45.79571         0.43359
C         25.44673        24.73017        -1.72329
C         24.25694        25.42450        -1.71481
C         25.46377        27.51409        -1.26675
C         24.23676        26.82309        -1.46988
C         25.45317        28.91985        -1.00974
C         24.21554        29.61358        -0.92696
C         25.44544        31.71398        -0.43833
C         24.21383        31.01962        -0.61216
C         25.44543        33.10750        -0.11794
C         24.21180        33.79824         0.02855
C         25.43753        35.89186         0.56273
C         24.20943        35.20811         0.33005
C         25.40705        37.28224         0.85068
C         24.19706        38.00918         0.83592
C         25.42932        40.16408         1.12214
C         24.20389        39.44966         1.03255
C         25.41203        41.60080         1.15544
C         24.17543        42.30031         1.07972
C         25.41451        44.42216         0.83780
C         24.17597        43.73316         0.92727
C         25.42013        45.80583         0.46943
C         24.19553        46.48038         0.22559
C         25.39679        48.45535        -0.53246
C         24.21203        47.82626        -0.25064
C         27.97164        23.24750        -1.57574
C         27.93549        24.65692        -1.45620
C         26.68888        25.38776        -1.50336
C         27.93351        27.49783        -1.11857
C         26.69701        26.79368        -1.29853
C         27.92971        28.90999        -0.91699
C         26.69113        29.62008        -0.83582
C         27.92479        31.72437        -0.44572
C         26.68904        31.01624        -0.57390
C         27.92352        33.12551        -0.16596
C         26.68671        33.81137         0.03709
C         27.93538        35.86779         0.51820
C         26.69291        35.18720         0.40540
C         27.98308        37.24509         1.02235
C         26.64636        37.99058         1.20118
C         27.91488        40.11362         1.27511
C         26.67553        39.45394         1.16501
C         27.88772        41.58312         1.49917
C         26.63485        42.33140         1.25968
C         27.90356        44.46869         1.03378
C         26.65093        43.72434         1.06540
C         27.88975        45.86420         0.61592
C         26.65761        46.49957         0.27547
C         27.88680        48.46319        -0.57767
C         26.65141        47.81160        -0.28625
C         27.94540        49.66751        -1.39435
C         30.38449        23.21199        -1.23652
C         29.15753        22.54676        -1.45771
C         30.39090        24.63338        -1.17445
C         29.16127        25.35667        -1.26107
C         30.39673        27.48888        -0.98442
C         29.16469        26.78375        -1.12688
C         30.39974        28.90696        -0.84969
C         29.16289        29.61681        -0.78812
C         30.39862        31.74493        -0.50272
C         29.16131        31.03038        -0.58301
C         30.39691        33.15330        -0.29759
C         29.15901        33.83629        -0.10027
C         30.38940        35.98468         0.17926
C         29.15689        35.23201         0.20198
C         30.37488        37.38222         0.38754
C         29.20154        38.04663         0.83250
C         30.45820        40.16255         1.41895
C         29.15426        39.42962         1.14294
C         30.41626        41.65762         0.95211
C         29.17061        42.35771         1.45985
C         30.38343        44.53754         1.33563
C         29.10995        43.81377         1.23581
C         30.36689        46.02008         0.90694
C         29.09235        46.57706         0.43890
C         30.35789        48.55915        -0.36767
C         29.10238        47.86857        -0.15714
C         30.24907        50.05185        -0.61022
C         29.08457        50.38241        -1.50943
C         32.82919        20.38612        -0.65909
C         31.65136        21.07102        -0.97311
C         32.84161        23.19582        -0.89193
C         31.62049        22.47576        -1.04444
C         32.85756        24.62497        -0.92451
C         31.62676        25.34727        -1.02198
C         32.87035        27.47735        -0.86733
C         31.63279        26.76586        -0.96137
C         32.87571        28.90352        -0.81285
C         31.63718        29.62171        -0.76541
C         32.87336        31.75677        -0.56616
C         31.63640        31.03664        -0.62067
C         32.87221        33.17232        -0.39115
C         31.63216        33.88492        -0.25213
C         32.87608        36.01623        -0.03573
C         31.62868        35.29201        -0.06680
C         32.89888        37.42776         0.10239
C         31.58760        38.19983         0.02145
C         32.83949        40.28509         0.65307
C         31.64049        39.50020         0.76506
C         32.87776        41.61898         1.29274
C         31.69934        42.40394         1.32146
C         32.85041        44.65452         1.29485
C         31.67667        43.82474         1.37230
C         32.83503        45.96078         0.68378
C         31.61933        46.61577         0.42812
C         32.85789        48.46101        -0.75964
C         31.56981        47.91236        -0.17418
C         32.83326        49.98223        -0.92739
C         31.54769        50.73830        -0.98715
C         32.72177        52.91352        -0.77203
C         31.57417        52.22178        -0.85949
C         35.34437        18.94360         0.24579
C         35.23153        20.41199         0.10602
C         34.03380        21.06868        -0.48541
C         35.29367        23.20232        -0.69913
C         34.06363        22.48607        -0.68697
C         35.33018        24.60422        -0.77404
C         34.08893        25.32974        -0.82918
C         35.34170        27.46086        -0.80925
C         34.09931        26.75394        -0.82919
C         35.32966        28.87009        -0.83807
C         34.11478        29.60952        -0.80116
C         35.32326        31.78413        -0.66086
C         34.11180        31.05230        -0.69728
C         35.34292        33.18127        -0.44678
C         34.10642        33.88562        -0.32442
C         35.35367        36.00575        -0.13505
C         34.11140        35.30338        -0.14940
C         35.36833        37.41307         0.08911
C         34.13407        38.10586         0.19580
C         35.42512        40.21016         0.81824
C         34.16567        39.57805         0.36486
C         35.38206        41.51878         1.41267
C         34.12690        42.06182         1.76263
C         35.34699        44.65269         1.23965
C         34.11500        44.16992         1.70944
C         35.34796        45.94478         0.63975
C         34.10121        46.62302         0.40479
C         35.34509        48.64562        -0.21816
C         34.11272        47.93116        -0.10088
C         35.36251        50.03382        -0.53235
C         34.06089        50.74476        -0.53123
C         35.30385        52.96709        -0.65872
C         34.02033        52.23663        -0.51078
C         35.34888        54.32735        -0.52135
C         37.69795        19.15439         1.08678
C         36.48986        18.35612         0.63063
C         37.79728        20.45768         0.31381
C         36.52549        21.17638         0.08547
C         37.81560        23.17940        -0.64188
C         36.55304        22.39753        -0.82269
C         37.83380        24.56134        -0.69711
C         36.58194        25.31447        -0.78065
C         37.83707        27.43891        -0.78681
C         36.59560        26.72667        -0.81437
C         37.87065        28.84066        -0.72911
C         36.61108        29.58430        -0.96336
C         37.83785        31.78430        -0.50763
C         36.59987        31.08741        -0.88980
C         37.85416        33.16611        -0.41896
C         36.59363        33.90855        -0.43596
C         37.80733        36.11425        -0.67682
C         36.58437        35.29525        -0.32087
C         37.85940        37.45688         0.03978
C         36.63375        38.11696         0.25917
C         37.88812        40.10477         1.12191
C         36.61110        39.47076         0.74095
C         37.90051        41.58829         1.47763
C         36.59691        42.31055         1.64496
C         37.85077        44.50902         0.94447
C         36.59997        43.90575         1.46180
C         37.82715        45.88340         0.51988
C         36.58598        46.59960         0.38906
C         37.80723        48.70364        -0.12347
C         36.58534        47.97777         0.02254
C         37.79199        50.07611        -0.45999
C         36.56523        50.74977        -0.62387
C         37.83166        52.95595        -0.71056
C         36.55679        52.20615        -1.05657
C         37.79532        54.40273        -0.66845
C         36.56840        55.05519        -0.60191
C         40.16116        16.30446         1.63778
C         38.98547        17.03036         1.54390
C         40.20505        18.97225         0.71589
C         38.98462        18.35811         1.07135
C         40.24170        20.33775         0.25517
C         38.99642        21.03320         0.00004
C         40.31201        23.14149        -0.33912
C         39.08032        22.36674        -0.71604
C         40.29993        24.56718        -0.43676
C         39.09466        25.25929        -0.64763
C         40.34576        27.44252        -0.45899
C         39.13798        26.71564        -0.99931
C         40.31697        28.84834        -0.31479
C         39.07651        29.54379        -0.47716
C         40.31797        31.73645         0.09836
C         39.01628        30.98437        -0.16814
C         40.31795        33.19358        -0.12373
C         39.11595        33.86937        -0.32544
C         40.41310        36.05471        -0.39848
C         39.12278        35.32404        -0.61598
C         40.37488        37.49135        -0.03092
C         39.11428        38.13644         0.21321
C         40.35113        40.20281         0.78826
C         39.14147        39.48019         0.66905
C         40.33830        41.63115         0.99074
C         39.11657        42.35001         1.16897
C         40.29782        44.39420         0.48249
C         39.04394        43.74320         0.90651
C         40.30144        45.87731         0.21253
C         39.02985        46.60893         0.27710
C         40.30308        48.71788         0.00023
C         39.05383        47.99743         0.04183
C         40.31384        50.12317        -0.28337
C         39.07485        50.78026        -0.84733
C         40.27553        53.00093        -0.50039
C         39.03307        52.27842        -0.61084
C         40.27113        54.43147        -0.60589
C         39.04595        55.14066        -0.68681
C         40.26746        57.24370        -0.89720
C         39.07378        56.55337        -0.82035
C         42.62084        16.17521         1.41743
C         41.40150        16.89438         1.28596
C         42.68314        18.86358         0.51267
C         41.43222        18.24461         0.82747
C         42.70889        20.28158         0.20375
C         41.46959        20.99802         0.08584
C         42.74502        23.13846        -0.04031
C         41.49727        22.43430        -0.11780
C         42.75454        24.56847        -0.11250
C         41.54497        25.28581        -0.28872
C         42.78132        27.41853        -0.07064
C         41.55026        26.71720        -0.27619
C         42.78378        28.84596        -0.01276
C         41.55305        29.56808        -0.07367
C         42.80473        31.69055         0.08549
C         41.58159        30.98249         0.00833
C         42.80576        33.13658         0.10765
C         41.59608        33.86925        -0.04798
C         42.84915        35.97608         0.06954
C         41.64068        35.29020        -0.06976
C         42.87674        37.46457        -0.19242
C         41.58027        38.15524         0.17900
C         42.83395        40.22745         0.68541
C         41.59700        39.53310         0.54924
C         42.82908        41.63529         0.89843
C         41.57674        42.33961         0.93013
C         42.76589        44.50303         0.86890
C         41.57549        43.74901         0.82021
C         42.72255        45.92871         0.77954
C         41.54863        46.61881         0.43546
C         42.75610        48.76726         0.39627
C         41.52067        48.03613         0.30696
C         42.69347        50.23231         0.37628
C         41.47024        50.88590        -0.10884
C         42.75140        53.02962        -0.33466
C         41.49617        52.31034        -0.31127
C         42.75183        54.44159        -0.59320
C         41.51047        55.14196        -0.67287
C         42.74665        57.24918        -0.94635
C         41.50501        56.55583        -0.83798
C         43.82252        16.77688         1.10934
C         45.16966        18.72217         0.26476
C         43.87680        18.11483         0.64440
C         45.18723        20.24539        -0.00399
C         43.92286        20.98283         0.09906
C         45.21135        23.11592         0.08962
C         43.95793        22.41403         0.05888
C         45.22180        24.53971         0.09300
C         43.99633        25.27010         0.00309
C         45.24304        27.40037         0.16388
C         44.00285        26.69417         0.03054
C         45.25024        28.82221         0.21235
C         44.01997        29.54921         0.12821
C         45.27891        31.67634         0.30131
C         44.03270        30.97221         0.16798
C         45.28039        33.11106         0.31851
C         44.04676        33.83204         0.22715
C         45.31023        35.96564         0.34567
C         44.06601        35.26044         0.22037
C         45.31172        37.40372         0.45309
C         44.11002        38.13304         0.35876
C         45.30976        40.21730         0.86920
C         44.09017        39.52241         0.61957
C         45.29456        41.65607         1.02744
C         44.04061        42.35815         0.99661
C         45.22091        44.49932         1.15494
C         44.02888        43.80259         1.05019
C         45.24972        45.96733         1.12074
C         43.95205        46.70811         0.97944
C         45.24409        48.81678         0.47196
C         43.97272        48.12646         0.58317
C         45.26607        50.21868         0.24507
C         44.01921        50.99079         0.32565
C         45.22608        53.03334        -0.41749
C         43.98918        52.37163        -0.17342
C         45.22298        54.43098        -0.70610
C         43.97955        55.14926        -0.73355
C         43.93732        56.56764        -0.91001
C         47.60990        18.83653         0.58612
C         46.44890        18.13880         0.68574
C         47.65602        20.25024         0.28440
C         46.45654        20.96869         0.15372
C         47.68354        23.10513         0.20760
C         46.44834        22.39755         0.15598
C         47.69065        24.53231         0.22572
C         46.46325        25.24766         0.18222
C         47.70099        27.38425         0.36863
C         46.46796        26.67712         0.22725
C         47.69264        28.79207         0.48672
C         46.48750        29.51977         0.37965
C         47.74335        31.67035         0.49996
C         46.49250        30.96059         0.41757
C         47.74598        33.09985         0.47430
C         46.51297        33.81642         0.40965
C         47.76880        35.95251         0.60345
C         46.52271        35.25020         0.44801
C         47.77339        37.37073         0.74989
C         46.54155        38.08776         0.71342
C         47.77621        40.17273         1.17782
C         46.53728        39.49949         0.90761
C         47.71732        41.60625         1.48404
C         46.48441        42.34465         1.27285
C         47.75367        44.53542         1.05968
C         46.49953        43.82399         1.56498
C         47.73622        45.89707         0.71698
C         46.43316        46.58275         0.40553
C         47.68612        48.74853         0.15587
C         46.46388        48.08981         0.43413
C         47.69575        50.15461        -0.10991
C         46.47280        50.88810        -0.08063
C         47.68748        52.96309        -0.66277
C         46.46178        52.30095        -0.37338
C         47.65141        54.36790        -0.93274
C         46.47330        55.07134        -0.94595
C         50.15127        20.26742         0.22060
C         48.91031        20.95840         0.25274
C         50.16187        23.08835         0.16224
C         48.91875        22.37989         0.21228
C         50.17152        24.52082         0.18252
C         48.93662        25.24544         0.26088
C         50.19280        27.37036         0.34033
C         48.94448        26.65693         0.35273
C         50.21601        28.78187         0.47090
C         48.95835        29.49565         0.89624
C         50.20430        31.65786         0.56611
C         48.96641        30.96765         0.58403
C         50.21086        33.08743         0.56805
C         48.98472        33.80456         0.55138
C         50.23312        35.93962         0.77162
C         48.99320        35.23557         0.63233
C         50.22383        37.34894         0.94368
C         49.01309        38.06527         0.94607
C         50.26312        40.23051         1.16362
C         49.00236        39.49751         1.15316
C         50.27097        41.64961         1.13991
C         49.05235        42.40722         1.43248
C         50.19119        44.49713         0.74478
C         48.98234        43.83230         1.08225
C         50.17509        45.89885         0.46194
C         48.94350        46.60438         0.43378
C         50.12973        48.67035        -0.26770
C         48.92011        48.00661         0.11232
C         50.10886        50.05268        -0.64536
C         48.91868        50.81033        -0.48709
C         50.15781        52.86481        -1.05493
C         48.90904        52.22131        -0.73043
C         51.34438        20.94811         0.12861
C         52.63157        23.08318        -0.03619
C         51.38561        22.36793         0.09143
C         52.63586        24.50437        -0.02831
C         51.40313        25.22462         0.11067
C         52.64748        27.36596         0.08061
C         51.41426        26.65308         0.16935
C         52.65883        28.78470         0.18482
C         51.43094        29.49421         0.39814
C         52.67872        31.64029         0.49070
C         51.44568        30.93247         0.50956
C         52.67182        33.05537         0.60126
C         51.45749        33.79510         0.62176
C         52.71926        35.94723         0.68697
C         51.46925        35.21741         0.73237
C         52.73676        37.35674         0.77520
C         51.50883        38.05339         1.30010
C         52.71153        40.22805         0.82990
C         51.48926        39.53356         1.02598
C         52.72484        41.65862         0.81491
C         51.47845        42.37406         0.94112
C         52.66128        44.56397         0.82183
C         51.42603        43.78539         0.80994
C         52.64772        45.94108         0.34982
C         51.39587        46.59698         0.16434
C         52.64188        48.59819        -0.67452
C         51.35539        47.95199        -0.22230
C         52.58475        50.09057        -0.76376
C         51.31423        50.66687        -1.32761
C         51.28880        52.16443        -1.30667
C         55.04942        23.08577        -0.35487
C         53.86756        22.39977        -0.18921
C         55.08600        24.50591        -0.35840
C         53.86795        25.21816        -0.16945
C         55.09049        27.36123        -0.26730
C         53.87275        26.65009        -0.11832
C         55.10270        28.79099        -0.17531
C         53.89342        29.49933         0.08861
C         55.15107        31.60029         0.14807
C         53.92213        30.91840         0.27226
C         55.23755        33.03370         0.46889
C         53.93886        33.78918         0.71731
C         55.16235        35.93716         0.34248
C         53.94796        35.24837         0.54602
C         55.15632        37.36700         0.31367
C         53.94265        38.07297         0.58237
C         55.14398        40.22335         0.34120
C         53.94442        39.51527         0.61035
C         55.15167        41.65784         0.35082
C         53.95232        42.34893         0.64239
C         55.19091        44.55192         0.35729
C         54.00069        43.80860         0.79458
C         55.15297        45.95079         0.29086
C         53.88029        46.65783         0.25924
C         55.07730        48.84240         0.32316
C         53.85486        48.02962         0.00466
C         54.95462        50.26010        -0.14852
C         53.75873        50.82732        -0.54778
C         57.54884        24.55162        -0.80388
C         56.31817        25.22756        -0.55416
C         57.52759        27.37171        -0.70454
C         56.31067        26.64795        -0.50799
C         57.53949        28.79897        -0.64193
C         56.32471        29.50564        -0.35510
C         57.56527        31.65173        -0.44392
C         56.34202        30.92089        -0.22362
C         57.58074        33.08717        -0.36437
C         56.41342        33.80452         0.03695
C         57.58231        35.94417        -0.24898
C         56.38963        35.21140         0.06878
C         57.57704        37.37615        -0.22654
C         56.36517        38.09144         0.05833
C         57.56852        40.23949        -0.20422
C         56.36143        39.51225         0.06626
C         57.57083        41.67541        -0.20410
C         56.36649        42.38790         0.08348
C         57.57152        44.53313        -0.26254
C         56.37676        43.81351         0.05967
C         57.55272        45.96409        -0.30010
C         56.35223        46.68732        -0.03214
C         57.53502        48.78521        -0.39834
C         56.34680        48.10377        -0.09005
C         58.71873        25.24508        -1.00507
C         59.93780        27.39694        -1.16402
C         58.73627        26.66717        -0.96060
C         59.94190        28.77307        -1.11313
C         58.75188        29.50821        -0.84900
C         59.93112        31.69987        -1.05736
C         58.75151        30.95305        -0.78266
C         59.94075        33.07358        -1.00322
C         58.77348        33.80538        -0.65262
C         59.95657        35.99008        -0.83971
C         58.77518        35.24315        -0.57770
C         59.95688        37.36308        -0.79559
C         58.77263        38.09326        -0.50017
C         59.95528        40.27373        -0.74981
C         58.76968        39.53337        -0.48355
C         59.95614        41.64740        -0.75933
C         58.77173        42.39044        -0.49724
C         59.95416        44.57764        -0.84271
C         58.77565        43.82778        -0.53424
C         59.94120        45.94893        -0.88528
C         58.74296        46.68127        -0.61868
C         58.71195        48.09200        -0.66341
O         54.79116        33.34161         1.83632
O         28.62426        41.94862         2.75337
O         27.36377        37.40971         2.33960
O         43.27332        50.83402         1.58467
O         32.23078        50.33242        -2.22620
O         39.97191        35.70274        -1.77283
O         40.31568        44.90990        -0.90489
O         48.43389        42.02029         2.70958
O         44.66872        46.58752         2.29215
O         38.01569        40.56183         2.51846
O         45.19256        19.26053        -1.09355
O         36.68687        30.40388        -2.20275
O         33.91928        51.45453         0.75904
O         35.68371        21.22379         1.28149
O         53.45723        44.32589         2.04772
O         36.67572        43.23611         2.75327
O         39.47663        31.28712         1.21239
O         30.34646        45.63207         2.31553
O         34.11402        43.13819         2.66038
O         33.47499        40.29735        -0.73302
O         48.96290        29.42465         2.38014
H         49.77273        29.88489         2.68916
O         29.93513        50.62909         0.70071
H         29.11868        50.19511         1.02857
O         39.33168        26.73486        -2.48403
H         39.24545        27.66978        -2.77177
O         39.15259        50.63269        -2.30874
H         38.32195        51.02279        -2.67437
O         55.14697        48.91988         1.80167
H         55.25184        48.00481         2.14093
O         46.15212        46.23759        -1.00785
H         46.89481        46.58137        -1.54914
O         31.42496        38.56146        -1.40729
H         32.21506        39.11244        -1.63499
O         42.99156        37.60063        -1.65474
H         42.23018        37.12558        -2.05356
O         51.24591        50.26018        -2.77797
H         50.37308        50.55429        -3.11728
O         36.55185        52.13585        -2.53758
H         36.55301        53.05883        -2.87184
O         30.66947        40.16159         2.85272
H         29.91715        40.66377         3.25398
O         37.57467        36.46462        -2.07675
H         38.46092        36.47346        -2.51222
O         37.46326        19.52830         2.47996
H         36.70658        20.16649         2.46736
O         51.60786        37.93760         2.77499
H         52.42928        38.39781         3.05059
O         30.28253        41.68652        -0.48988
H         31.00702        41.15029        -0.88110
O         32.91386        47.87861        -2.09979
H         32.48194        48.53039        -2.70298
O         36.55263        21.85674        -2.18982
H         37.50129        21.73006        -2.45327
O         39.26257        22.02223        -2.15776
H         39.50600        22.85354        -2.62093
O         46.55168        43.96568         3.02670
H         47.27723        43.36823         3.33671
O         52.80306        48.15507        -2.08954
H         52.22846        48.75542        -2.63318
H         22.06747        27.00978        -1.58752
H         22.04017        29.41700        -1.10789
H         22.03587        31.22715        -0.56708
H         22.03395        33.58498        -0.01937
H         22.03967        35.44132         0.19401
H         22.02877        37.83134         0.57887
H         22.02711        39.64283         1.07669
H         21.99914        42.06634         1.10113
H         21.99619        43.95262         0.88947
H         22.02094        46.33531         0.28593
H         25.42267        23.64763        -1.90447
H         23.30748        24.89673        -1.88486
H         25.38408        49.48208        -0.92271
H         23.25552        48.34083        -0.42192
H         27.04583        22.68210        -1.74319
H         27.05878        49.95254        -1.97881
H         29.12981        21.45217        -1.53849
H         29.13490        51.26765        -2.15952
H         32.78496        19.29683        -0.52115
H         30.72937        20.48773        -1.09579
H         32.69484        54.01303        -0.77600
H         30.61312        52.75112        -0.94227
H         34.48591        18.32149        -0.04892
H         34.43066        54.89136        -0.30410
H         36.53149        17.25805         0.68432
H         36.51882        56.14805        -0.51904
H         40.14576        15.27185         2.01488
H         38.04342        16.56675         1.86759
H         40.26576        58.33683        -1.01496
H         38.13394        57.11776        -0.88486
H         42.59570        15.13201         1.76310
H         42.73751        58.34169        -1.07044
H         44.74959        16.19574         1.20510
H         44.87358        57.13362        -1.00356
H         48.54353        18.33342         0.87310
H         46.47180        17.11531         1.08529
H         48.58233        54.90930        -1.14433
H         46.50633        56.14638        -1.16665
H         50.16998        19.16982         0.23423
H         50.19821        53.96075        -1.11706
H         52.27522        20.36807         0.08489
H         52.19237        52.70660        -1.61798
H         55.97507        22.50973        -0.48196
H         53.89490        21.30252        -0.19373
H         55.83515        50.91253        -0.06165
H         53.75724        51.90897        -0.75087
H         57.57322        23.45492        -0.84652
H         57.54441        49.88327        -0.43411
H         59.65590        24.70485        -1.20209
H         60.87013        26.84860        -1.36154
H         60.89156        29.30069        -1.27036
H         60.85860        31.18194        -1.33294
H         60.87548        33.59971        -1.23534
H         60.89418        35.47398        -1.08203
H         60.89576        37.89104        -1.00426
H         60.89755        39.75162        -0.95813
H         60.89715        42.16890        -0.97591
H         60.89602        44.05477        -1.05443
H         60.85970        46.50267        -1.12799
H         59.63084        48.64365        -0.90860
