         470
 CSIRO Nanostructure Databank - Neutral Graphene Oxide Data Set
C         37.93353        49.76364         2.04103
C         36.72377        50.24192         2.54668
C         36.79094        52.08433         0.98427
C         36.14425        51.39597         2.01272
C         39.91229        48.45487         0.38938
C         39.86541        49.85553         0.48489
C         38.60331        50.43209         0.99793
C         39.87317        52.80487        -0.37317
C         38.01522        51.60702         0.50199
C         39.91757        54.23695        -0.52418
C         42.30597        48.51193         0.12337
C         41.10350        47.78895         0.12077
C         42.29252        49.92818         0.20514
C         41.04144        50.62125         0.22924
C         42.29641        52.74394        -0.24783
C         40.99722        52.05900        -0.04103
C         42.35724        54.24020        -0.49021
C         41.07568        54.94730        -0.46918
C         45.00867        45.90792        -0.40146
C         43.75930        46.59779        -0.46078
C         44.66806        48.49419         0.92959
C         43.58957        47.82502         0.11282
C         44.77278        49.97835         0.58076
C         43.57486        50.62385         0.31655
C         44.82015        52.85768         0.30851
C         43.52114        52.09484         0.31008
C         44.83384        54.26562        -0.14224
C         43.65960        54.96134        -0.36061
C         44.90253        57.06738        -0.59426
C         43.71024        56.37104        -0.62090
C         47.45601        44.37662        -0.09444
C         47.36898        45.71187         0.26911
C         46.09191        46.40650         0.28503
C         47.29138        48.51835         1.06860
C         46.00358        47.74443         0.92965
C         47.28590        49.99758         0.94986
C         46.04517        50.70147         0.68676
C         47.30108        52.87280         0.56295
C         46.06558        52.08131         0.40515
C         47.37873        54.27085         0.05920
C         46.14327        54.90030        -0.53101
C         47.38798        57.08630        -0.45926
C         46.14670        56.40515        -0.45666
C         47.44607        58.50778        -0.57850
C         49.89906        44.34217         0.00073
C         48.70410        43.73127        -0.30656
C         49.83844        45.63862         0.71417
C         48.58524        46.43652         0.60130
C         49.80236        48.50712         1.27071
C         48.57102        47.77509         0.89987
C         49.77029        49.96748         1.05817
C         48.55265        50.66318         0.96287
C         49.86626        52.94624         0.90828
C         48.55680        52.15547         0.96209
C         49.84246        54.07476        -0.14020
C         48.57825        54.92472        -0.07398
C         49.84947        57.05723        -0.39030
C         48.62983        56.35651        -0.35661
C         49.88219        58.47626        -0.54558
C         48.64217        59.17435        -0.63362
C         52.44767        42.12134        -1.63442
C         51.23688        42.66826        -1.23959
C         52.41045        44.40378         0.00420
C         51.19485        43.79201        -0.38356
C         52.44669        45.52035         1.03557
C         51.11748        46.27852         1.17818
C         52.40358        48.51320         1.17745
C         51.12594        47.77363         1.37170
C         52.36432        49.92071         1.09391
C         51.07439        50.62727         0.84649
C         52.34172        52.87133         0.80631
C         51.09023        52.09976         0.61588
C         52.35206        54.21942         0.54100
C         51.15712        54.85957        -0.08373
C         52.35923        57.12326         0.10357
C         51.14835        56.34476        -0.27089
C         52.35616        58.54069        -0.21783
C         51.12874        59.18737        -0.58734
C         52.35901        61.27713        -0.95023
C         51.18270        60.56447        -0.94808
C         54.93568        40.53471        -1.55910
C         54.93881        42.04128        -1.65941
C         53.65598        42.67696        -1.19833
C         54.90777        44.47608        -0.00891
C         53.64990        43.84519        -0.40234
C         54.88077        45.75109         0.64227
C         53.67616        46.39790         0.90176
C         54.86875        48.57307         1.19143
C         53.64685        47.82394         1.15000
C         54.81112        49.98763         1.27854
C         53.56847        50.65766         1.16742
C         54.80288        52.94678         1.34575
C         53.51946        52.14224         1.29463
C         54.75075        54.37631         1.00935
C         53.55770        55.01837         0.72091
C         54.70193        57.26498         0.86229
C         53.49471        56.46970         0.55602
C         54.76679        58.67354         0.34463
C         53.55575        59.27368        -0.23943
C         54.82047        61.38684        -0.54673
C         53.59721        60.65902        -0.59661
C         54.86282        62.81240        -0.54501
C         57.38491        40.51613        -1.57034
C         56.09562        39.84432        -1.58865
C         57.37736        41.91344        -1.19559
C         56.17136        42.61411        -1.01259
C         57.40732        44.53114        -0.02953
C         56.14372        43.88054        -0.36732
C         57.41529        45.72582         0.67177
C         56.14557        46.34645         1.21691
C         57.34303        48.55368         1.27366
C         56.15408        47.87235         1.18674
C         57.37945        50.03033         1.40855
C         56.06211        50.77274         1.45913
C         57.25328        52.91979         0.94646
C         56.08246        52.23322         1.19913
C         57.31222        54.37003         0.97211
C         56.03238        55.09408         1.19363
C         57.28098        57.29744         0.89020
C         56.00940        56.58996         1.13008
C         57.34883        58.58882         0.38808
C         56.09013        59.21694        -0.08133
C         57.39164        61.37194        -0.45964
C         56.10491        60.65760        -0.53083
C         57.34362        62.82348        -0.71107
C         56.04105        63.50108        -0.59530
C         59.74248        37.65562        -1.95733
C         58.59872        38.37727        -1.97467
C         59.86556        40.47909        -1.65749
C         58.59284        39.80549        -1.72631
C         59.83601        41.95557        -1.50409
C         58.61506        42.60173        -0.99048
C         59.92143        44.53088        -0.19369
C         58.64769        43.89376        -0.46226
C         59.93378        45.66252         0.70171
C         58.68762        46.31370         1.12481
C         59.87453        48.69615         1.29941
C         58.65822        47.87587         1.43562
C         59.82305        50.08977         0.89582
C         58.58909        50.75085         0.94863
C         59.81713        52.97557         0.54523
C         58.49224        52.17121         0.64011
C         59.78579        54.40934         0.86711
C         58.51095        55.07912         0.96901
C         59.76831        57.27951         0.96843
C         58.50771        56.56468         1.35217
C         59.81676        58.61426         0.58440
C         58.58801        59.30910         0.24097
C         59.84560        61.45417        -0.15363
C         58.58560        60.70115        -0.15580
C         59.86995        62.82202        -0.29858
C         58.63602        63.60371        -0.55403
C         59.77575        65.74610        -0.12127
C         58.62638        65.03204        -0.14510
C         62.37132        36.15969        -2.44765
C         62.33023        37.53808        -1.91855
C         61.03900        38.29505        -1.68890
C         62.36592        40.43344        -1.59199
C         61.07693        39.77863        -1.67387
C         62.40618        41.90796        -1.51930
C         61.13784        42.69255        -1.35285
C         62.41332        44.46761        -0.12222
C         61.13983        43.93671        -0.56208
C         62.42159        45.69773         0.66072
C         61.16408        46.08165         1.19561
C         62.36337        48.72724         1.16064
C         61.12536        48.15779         1.58027
C         62.33096        50.12254         0.87351
C         61.06469        50.82226         0.76677
C         62.28379        52.98894         0.77584
C         61.07593        52.23625         0.69678
C         62.25667        54.37451         1.01018
C         60.99754        55.06501         1.11745
C         62.27564        57.28180         1.29701
C         60.98206        56.53490         1.33086
C         62.29834        58.68663         0.83195
C         61.10677        59.29815         0.47786
C         62.43745        61.41761        -0.00640
C         61.12390        60.68405        -0.04264
C         62.42622        62.91686         0.01124
C         61.11790        63.63612        -0.18334
C         62.03092        65.75405        -1.18280
C         61.01354        65.10244        -0.51700
C         62.44700        67.13457        -1.24173
C         64.82908        36.09381        -2.21241
C         63.54898        35.50058        -2.55771
C         64.89789        37.57483        -2.18049
C         63.58613        38.33082        -2.08758
C         64.85762        40.35526        -1.32043
C         63.58164        39.73486        -1.62443
C         64.88590        41.68475        -0.93309
C         63.70648        42.55282        -1.09820
C         64.81730        44.32721         0.39961
C         63.61803        43.83486        -0.37208
C         64.84503        45.83739         0.50636
C         63.58685        46.49871         0.78694
C         64.76103        48.67536         0.78483
C         63.56537        47.94800         0.99523
C         64.75067        50.08770         0.73759
C         63.55154        50.81400         0.73246
C         64.80662        52.97528         0.97783
C         63.57825        52.29523         0.41827
C         64.77907        54.38804         1.26375
C         63.51290        55.11324         1.19087
C         64.71937        57.26253         1.59857
C         63.51744        56.49116         1.25657
C         64.76725        58.69922         1.24063
C         63.59692        59.36288         0.82204
C         64.88427        61.44650         0.59695
C         63.66918        60.75596         0.50526
C         64.95577        62.96091         0.52017
C         63.76799        63.52345        -0.20882
C         65.08643        65.44461        -1.06072
C         63.92771        64.59151        -1.02594
C         65.00019        66.78996        -1.44797
C         63.74446        67.53462        -1.46494
C         67.01586        33.13473        -1.80156
C         65.88992        33.87942        -1.97441
C         67.28650        35.94377        -1.77245
C         65.94876        35.31735        -1.95990
C         67.36980        37.45206        -1.65531
C         66.12201        38.24831        -1.69175
C         67.36611        40.21865        -0.90151
C         66.10972        39.57618        -1.30889
C         67.40431        41.60230        -0.58974
C         66.15686        42.38039        -0.68613
C         67.35141        44.41760         0.30531
C         66.10524        43.77870        -0.16542
C         67.32828        45.78826         0.44587
C         66.05464        46.50005         0.45915
C         67.23746        48.57803         1.18530
C         66.05607        48.00267         0.37387
C         67.18820        50.08365         1.12995
C         66.04237        50.85258         0.51643
C         67.19954        52.92313         1.49824
C         65.98309        52.26582         1.07316
C         67.24339        54.35622         1.55584
C         65.98052        55.05685         1.50885
C         67.31451        57.20502         1.88483
C         65.98133        56.49530         1.83595
C         67.25445        58.66391         1.47956
C         66.03570        59.35964         1.21840
C         67.37076        61.38473         0.67058
C         66.09621        60.74574         0.86614
C         67.41166        62.72439         0.08438
C         66.26288        63.46437        -0.07911
C         67.51867        65.44023        -0.91638
C         66.32025        64.79649        -0.66925
C         67.52639        66.74437        -1.58983
C         66.25339        67.49625        -1.70255
C         67.56298        69.45751        -2.37630
C         66.32164        68.80615        -2.13406
C         69.97016        31.38612         0.39324
C         69.92759        32.67733        -0.15131
C         68.28008        33.74837        -1.47472
C         69.78659        35.77502        -1.12666
C         68.42578        35.10504        -1.30419
C         69.71328        37.27838        -0.82093
C         68.58224        38.05013        -1.05075
C         69.79598        40.12573        -0.44471
C         68.57013        39.46800        -0.78488
C         69.82420        41.53040        -0.17268
C         68.58918        42.23801        -0.16158
C         69.92677        44.36546         0.52459
C         68.57177        43.61206         0.37580
C         69.90539        45.83340         0.43400
C         68.61272        46.52518         0.40220
C         69.92267        48.61351         0.98817
C         68.60660        48.03353         0.69278
C         70.08912        49.70656         1.83769
C         68.14643        50.76107         1.80169
C         69.62035        52.77432         2.17469
C         68.34922        52.17628         1.75065
C         69.69534        54.33591         2.03811
C         68.47693        55.03110         1.56682
C         69.60576        57.22470         0.96652
C         68.32977        56.45122         1.01233
C         69.73349        58.51856         1.35537
C         68.48814        59.30939         1.34453
C         69.88910        61.22363         0.59816
C         68.54922        60.65106         0.88341
C         69.96754        62.59338         0.02936
C         68.70291        63.26629        -0.40522
C         70.05529        65.48037        -0.67959
C         68.79097        64.70459        -0.85154
C         70.05858        66.87272        -0.98825
C         68.88359        67.47714        -1.71005
C         69.98608        69.69111        -2.48767
C         68.79765        68.90401        -2.11492
C         69.95657        70.48245        -3.65459
C         71.13567        32.25924         2.31878
C         70.57658        31.17566         1.63066
C         71.13241        33.52900         1.74938
C         70.54786        33.77662         0.48282
C         71.87499        35.77847         0.20402
C         70.71780        35.09647        -0.12349
C         72.04566        37.15004        -0.07684
C         70.94566        37.93057        -0.44795
C         72.22498        40.06138        -0.18037
C         71.00460        39.37293        -0.37265
C         72.26426        41.43797        -0.03695
C         71.08074        42.21018         0.00371
C         72.29419        44.41174        -0.09959
C         71.14034        43.64729         0.12748
C         72.29747        45.80451         0.04849
C         71.10937        46.53682         0.26967
C         72.38362        48.76934         0.67132
C         71.11424        48.08680         0.21067
C         72.38036        50.00468         1.26137
C         71.18587        50.58756         1.81707
C         71.99763        52.77770         2.91125
C         71.02648        52.11466         1.95223
C         72.00525        54.12575         2.99017
C         71.08619        54.90720         2.15017
C         72.49773        57.05242         1.91727
C         71.47066        56.08191         1.55916
C         72.29935        58.39653         1.85521
C         71.05116        59.17330         1.60788
C         72.37496        61.37139         0.95550
C         71.10740        60.65941         1.28785
C         72.38203        62.65393         0.55022
C         71.10188        63.46202         0.53918
C         72.29733        65.63251         0.25256
C         71.17320        64.85804        -0.06992
C         72.28895        67.00493         0.03798
C         71.17564        67.62302        -0.54869
C         72.26051        70.51095        -2.06863
C         71.16619        69.70871        -1.72484
C         72.20290        71.28598        -3.22816
C         71.05276        71.26161        -4.02317
O         68.56809        47.54739        -0.69567
O         66.20219        43.57663        -1.60509
O         50.26702        45.58276         2.13787
O         70.25455        61.44980        -0.82150
O         59.06128        52.57740        -0.64559
O         61.78447        37.66403        -0.56168
O         67.67668        36.77742        -2.94377
O         61.58098        57.04302         2.58143
O         64.25869        38.17750        -3.37137
O         71.23359        69.01818        -0.50982
O         61.72052        63.46183         1.17903
O         65.16485        56.90394         2.98136
O         38.58836        52.29409        -0.57574
O         68.78025        63.59895        -1.82858
O         50.40872        48.16527         2.58473
O         70.68381        56.50275         0.46498
O         42.46037        53.25956        -1.60876
O         51.06875        51.24274        -0.55254
O         69.45510        53.62427         3.31890
O         51.45179        55.42881        -1.40873
O         43.98686        52.70333         1.55199
O         56.11188        59.52334        -1.50381
O         68.36131        66.65437        -2.80095
O         69.30778        32.80487        -1.38526
O         47.71600        52.73630         2.01192
O         46.61394        47.90168         2.25017
O         69.24638        43.75376         1.67220
O         62.88560        64.90019        -1.90054
O         61.96167        60.83106        -1.26092
O         61.19988        46.95408         2.29366
O         54.05453        52.61412         2.57265
O         54.56443        58.41273         1.77326
O         55.99470        55.89479         2.44690
O         58.09571        63.32474        -1.89418
O         69.00554        50.05074         2.65684
O         58.65501        46.85928         2.48103
O         70.91347        60.23182         2.65163
O         63.26612        42.55696        -2.50663
O         60.40126        42.73517        -2.62529
O         56.81473        50.47015         2.69524
O         64.71977        43.77200         1.75076
H         64.00591        44.25298         2.22166
O         44.15663        48.46366         2.29212
H         44.94543        48.48656         2.88483
O         67.05428        48.11564         2.53936
H         67.67650        48.62543         3.10819
O         70.72916        63.70248         1.93794
H         71.45898        64.19570         2.36847
O         67.76992        56.36218        -0.32177
H         68.45738        55.99416        -0.91630
O         66.16879        48.34338        -1.04143
H         66.99348        47.91476        -1.38344
O         67.80917        57.13578         3.23957
H         67.03328        57.26249         3.83123
O         56.08734        45.97608         2.63187
H         56.93020        46.29053         3.04142
O         71.01123        48.42875        -1.20614
H         70.12716        48.11185        -1.50834
O         66.20394        51.01826        -0.92852
H         66.19602        50.09571        -1.30326
O         50.09824        53.54534         2.19531
H         49.22839        53.56760         2.66416
O         70.43233        35.68463        -2.43423
H         69.81043        36.09557        -3.07754
O         49.77334        53.43610        -1.43090
H         50.16782        54.05988        -2.08262
O         63.69877        52.39219        -1.03915
H         64.56930        51.97718        -1.27371
O         58.52597        56.58018         2.81870
H         57.62203        56.30219         3.11524
O         64.91831        63.44401         1.89928
H         65.58350        62.94040         2.41386
O         46.26023        54.58522        -1.98676
H         45.47392        54.97485        -2.42760
O         55.04750        42.36105        -3.09237
H         55.89916        41.99180        -3.41049
O         52.67523        44.83426         2.30328
H         51.79031        44.71544         2.72467
O         71.34778        52.59431         0.60417
H         72.16164        52.14057         0.29782
H         38.37711        48.85438         2.47050
H         36.22341        49.70253         3.36211
H         36.34841        52.98788         0.54516
H         35.18352        51.76205         2.39970
H         38.98797        47.87660         0.52588
H         38.95382        54.76027        -0.59553
H         41.11597        46.69366         0.03929
H         41.04655        56.04444        -0.42654
H         45.08856        44.95423        -0.94022
H         42.93322        46.12895        -1.01429
H         44.86648        58.16055        -0.69464
H         42.77680        56.92451        -0.78547
H         46.54382        43.80310        -0.30565
H         46.51743        59.08997        -0.63558
H         48.68287        42.72854        -0.75379
H         48.63158        60.26824        -0.72078
H         52.45502        41.25076        -2.30400
H         50.30714        42.21205        -1.60219
H         52.34464        62.33201        -1.25553
H         50.26495        61.08077        -1.25860
H         53.97779        39.99491        -1.55482
H         53.91976        63.37524        -0.50389
H         56.06155        38.74616        -1.58782
H         56.02004        64.59759        -0.65538
H         59.70787        36.56607        -2.09411
H         57.64906        37.85842        -2.15984
H         59.76146        66.82846         0.07803
H         57.66751        65.52389         0.06901
H         61.43267        35.64444        -2.69491
H         61.69290        67.92010        -1.07770
H         63.53160        34.46017        -2.91095
H         63.87220        68.62679        -1.52159
H         66.97881        32.03930        -1.86600
H         64.93366        33.37440        -2.16160
H         67.52072        70.49438        -2.73937
H         65.40889        69.39356        -2.29822
H         69.51418        30.55435        -0.15932
H         69.06228        70.47103        -4.29279
H         71.59002        32.10689         3.30695
H         70.59932        30.16918         2.06982
H         71.58097        34.36257         2.30767
H         72.67303        35.26704         0.76098
H         73.00288        37.61876         0.18519
H         73.17273        39.50730        -0.16759
H         73.23800        41.93057         0.08963
H         73.23383        43.91345        -0.37693
H         73.24701        46.34136        -0.07935
H         73.33943        48.36816         0.30386
H         73.33544        50.54331         1.38032
H         72.70237        52.16842         3.49488
H         72.75475        54.65169         3.60186
H         73.46303        56.68822         2.30328
H         73.13807        59.02657         2.19288
H         73.32212        60.81375         1.01632
H         73.33347        63.13275         0.27357
H         73.16681        65.16759         0.73860
H         73.13795        67.62496         0.35255
H         73.14949        70.52349        -1.42479
H         73.05917        71.91170        -3.51429
H         71.00824        71.86246        -4.94146
