         424
 CSIRO Nanostructure Databank - Neutral Graphene Oxide Data Set
C          1.23045         2.00788        -0.54400
C          1.26902         3.42690        -0.63330
C          2.29180         1.31281        -0.06270
C          2.40921         4.16027        -0.28206
C          1.19834         6.33983        -0.61003
C          1.19669         7.73410        -0.69646
C          2.38408         5.62261        -0.38574
C          2.38151         8.47919        -0.60929
C          1.17452        10.65700        -0.43281
C          1.17219        12.03823        -0.32488
C          2.38261         9.94594        -0.60499
C          2.35926        12.78855        -0.42930
C          1.40680        14.78680         0.81333
C          1.49654        16.13596         1.14696
C          2.28466        14.23261        -0.14458
C          2.53546        16.95807         0.64723
C          2.65017        18.35020         1.03005
C          3.56514         1.96090         0.40692
C          3.59119         3.48781         0.17141
C          4.73732         1.31276        -0.33763
C          4.78615         4.26451         0.30114
C          3.59889         6.36138        -0.27997
C          3.61028         7.77875        -0.44650
C          4.81761         5.67111        -0.02165
C          4.85959         8.48217        -0.47470
C          3.59183        10.66868        -0.69999
C          3.58863        12.08796        -0.66815
C          4.89097         9.92330        -0.94757
C          4.87640        12.77783        -0.68791
C          3.17934        15.13667        -0.75132
C          3.45656        16.42063        -0.27808
C          4.98730        14.10464        -1.06096
C          4.68364        17.16844        -0.79922
C          3.73507        19.07734         0.65555
C          4.86738        18.47553        -0.02153
C          6.02486         1.60943         0.05751
C          6.03618         3.69908         0.65275
C          7.31430         1.32600        -0.43828
C          7.27839         4.29335         0.33939
C          6.04548         6.38676        -0.03192
C          6.05068         7.79576        -0.29568
C          7.28858         5.69068         0.09838
C          7.36549         8.48982        -0.59206
C          6.12737        10.65326        -0.46217
C          6.11219        12.07400        -0.39069
C          7.32298         9.96507        -0.29012
C          7.31386        12.78772        -0.25873
C          6.09190        14.97399        -0.75246
C          5.99831        16.34633        -0.73895
C          7.30841        14.29253        -0.14683
C          7.27227        17.15526        -0.95776
C          6.07419        19.11189         0.08347
C          7.33833        18.49027        -0.23562
C          8.48364         2.08511        -0.06608
C          8.48437         3.50597         0.24291
C          9.72927         1.44133        -0.18974
C          9.71887         4.21800         0.27352
C          8.53999         6.39167         0.10634
C          8.57292         7.79817        -0.01475
C          9.73826         5.65203         0.31024
C          9.75931         8.50764         0.28980
C          8.54313        10.66660        -0.05778
C          8.54384        12.09275        -0.10448
C          9.76540         9.96802         0.21743
C          9.78551        12.80957        -0.04808
C          8.61268        14.91699        -0.55751
C          8.58772        16.35810        -0.85561
C          9.79615        14.23922        -0.28909
C          9.86454        17.08657        -0.53666
C          8.50701        19.14154         0.02829
C          9.82719        18.43360         0.14818
C         10.96393         2.10454         0.02723
C         10.96028         3.52213         0.23676
C         12.19446         1.41322        -0.00784
C         12.18707         4.22872         0.40962
C         10.96682         6.35808         0.49560
C         10.93892         7.78554         0.59638
C         12.17779         5.62764         0.61257
C         12.16392         8.49974         0.99928
C         10.95035        10.69963         0.39429
C         10.99382        12.11313         0.17477
C         12.17048        10.02692         0.87371
C         12.26230        12.81746         0.22252
C         11.07194        14.93902        -0.23219
C         11.08588        16.31487        -0.26269
C         12.30446        14.20822         0.02748
C         12.35746        17.07546        -0.50590
C         11.08996        19.21655        -0.08982
C         12.29998        18.55379        -0.16097
C         13.41858         2.10077         0.14010
C         13.42919         3.50906         0.35057
C         14.66629         1.40882         0.03526
C         14.67743         4.21408         0.39505
C         13.44030         6.29397         1.08494
C         13.45940         7.79194         0.92017
C         14.69660         5.61729         0.61006
C         14.65830         8.47454         0.92170
C         13.45695        10.71889         0.78988
C         13.48533        12.09126         0.51482
C         14.66639         9.94915         1.30435
C         14.71079        12.83976         0.65011
C         13.53754        14.94518         0.15183
C         13.57743        16.35283        -0.01012
C         14.74680        14.23744         0.47450
C         14.77224        17.08708         0.11005
C         13.54394        19.23661        -0.08100
C         14.76938        18.53898         0.00783
C         15.87015         2.08395         0.04821
C         15.90049         3.50707         0.19671
C         17.13965         1.28607        -0.12105
C         17.13779         4.22980         0.16035
C         15.90710         6.34146         0.55882
C         15.90834         7.77104         0.73919
C         17.13495         5.64190         0.31082
C         17.14313         8.47982         0.68547
C         15.96388        10.63397         0.96690
C         15.92653        12.12074         1.05294
C         17.12483         9.94507         0.78213
C         17.23429        12.88007         0.97428
C         15.99444        14.97544         0.50903
C         16.00447        16.40307         0.32293
C         17.21846        14.30558         0.63822
C         17.22751        17.11967         0.32960
C         15.99329        19.23503         0.08347
C         17.23105        18.55852         0.21789
C         18.40586         2.10763        -0.09200
C         18.37820         3.53198        -0.01476
C         19.61473         1.44051        -0.15562
C         19.60578         4.26739        -0.13918
C         18.37224         6.36939         0.24824
C         18.35413         7.78569         0.47456
C         19.58438         5.69144        -0.02036
C         19.65163         8.47036         0.68647
C         18.39949        10.66902         0.40147
C         18.46871        12.12849         0.74775
C         19.66152         9.96078         0.83000
C         19.66978        12.80560         0.63888
C         18.47211        14.97857         0.50967
C         18.47624        16.42611         0.41124
C         19.66818        14.24215         0.55784
C         19.67603        17.14647         0.45327
C         18.45832        19.25911         0.24025
C         19.69643        18.58302         0.36779
C         20.85028         2.14771        -0.26334
C         20.82377         3.56271        -0.34811
C         22.07953         1.43609        -0.25297
C         22.07877         4.28426        -0.76898
C         20.81516         6.48891        -0.39653
C         20.91917         7.82782         0.29033
C         22.11333         5.72890        -0.32836
C         22.11417         8.49704         0.35497
C         20.93788        10.69541         0.70033
C         20.94008        12.06485         0.63087
C         22.20006         9.89450         0.95131
C         22.19601        12.80688         0.73252
C         20.95441        14.93162         0.43916
C         20.96484        16.43637         0.43622
C         22.18486        14.18420         0.76501
C         22.16104        17.17283         1.00126
C         20.94078        19.26355         0.30867
C         22.19152        18.61149         0.52911
C         23.32374         2.11289        -0.23764
C         23.34588         3.53999        -0.40868
C         24.54693         1.42477        -0.06908
C         24.54855         4.22504        -0.38320
C         23.29615         6.40648        -0.29843
C         23.35304         7.83440        -0.02856
C         24.55042         5.68888        -0.73375
C         24.55755         8.52680        -0.10354
C         23.43617        10.65384         0.52868
C         23.44830        12.06179         0.64641
C         24.60249         9.97056         0.11948
C         24.66837        12.76166         0.48154
C         23.42090        14.95776         0.95594
C         23.45064        16.41772         0.77084
C         24.73583        14.19732         0.77393
C         24.65472        17.07364         0.67685
C         23.40178        19.25901         0.47237
C         24.69476        18.58266         0.84614
C         25.77629         2.11256        -0.06563
C         25.78846         3.53481        -0.21656
C         27.02782         1.42551         0.02495
C         27.02892         4.24006        -0.23282
C         25.82200         6.40132        -0.37736
C         25.81243         7.81472        -0.31331
C         27.03185         5.68592        -0.31261
C         27.03698         8.51463        -0.37097
C         25.79938        10.69047        -0.10688
C         25.84866        12.08467         0.10289
C         27.00560         9.98945        -0.67131
C         27.08805        12.83574        -0.06676
C         25.93106        14.97246         0.41466
C         25.89538        16.35816         0.49473
C         27.12847        14.23734         0.06786
C         27.18877        17.13266         0.56074
C         25.88114        19.21678         0.17184
C         27.08315        18.56083         0.07033
C         28.22799         2.10543        -0.02017
C         28.25031         3.53543        -0.11911
C         29.51666         1.31860        -0.07683
C         29.50171         4.25277        -0.08385
C         28.26903         6.39264        -0.28197
C         28.26515         7.81617        -0.37544
C         29.50329         5.67528        -0.19875
C         29.52104         8.52963        -0.39171
C         28.30628        10.69659        -0.39032
C         28.30253        12.11703        -0.31510
C         29.51550         9.98919        -0.41230
C         29.52319        12.82818        -0.49777
C         28.35438        14.96408        -0.14825
C         28.37248        16.39179        -0.02017
C         29.53773        14.26524        -0.49094
C         29.53739        17.10731        -0.28834
C         28.28792        19.23441        -0.28271
C         29.52517        18.56266        -0.32198
C         30.76101         2.11843         0.24681
C         30.72945         3.56991         0.14143
C         31.91878         1.43913         0.49012
C         31.93899         4.30910         0.19032
C         30.73256         6.39914        -0.20585
C         30.71977         7.82796        -0.31017
C         31.96403         5.69888        -0.05372
C         32.00736         8.56906        -0.05408
C         30.75172        10.70607        -0.52079
C         30.72283        12.10113        -0.66850
C         32.01529         9.98993        -0.54428
C         31.93722        12.79310        -1.22614
C         30.77278        14.97600        -0.70618
C         30.77061        16.41904        -0.58462
C         31.96964        14.28438        -0.96719
C         31.95603        17.14120        -0.68273
C         30.74785        19.25938        -0.44446
C         31.97761        18.56914        -0.52938
C         33.19085         2.12236         0.75795
C         33.20043         3.64760         0.56604
C         34.46310         1.43237         0.63733
C         34.47540         4.29692         0.20700
C         33.23852         6.39700        -0.19223
C         33.25213         7.79493        -0.38820
C         34.45125         5.65595        -0.17637
C         34.48485         8.51283        -0.55622
C         33.21944        10.63974        -0.73844
C         33.23369        12.14964        -0.69957
C         34.47975         9.93928        -0.70921
C         34.46250        12.80050        -1.33268
C         33.22627        14.95664        -0.98430
C         33.25769        16.46876        -1.03534
C         34.44954        14.27893        -1.01217
C         34.38649        17.04342        -0.18978
C         33.22912        19.24801        -0.45215
C         34.44273        18.55238        -0.31856
C         35.68598         2.14348         0.58057
C         35.68307         3.57751         0.31851
C         36.89912         1.45352         0.68660
C         36.94319         4.28531         0.23573
C         35.72753         6.31392        -0.62171
C         35.71379         7.81318        -0.50771
C         36.96193         5.68126        -0.03921
C         36.94306         8.51513        -0.50769
C         35.71793        10.63681        -0.88255
C         35.74523        12.07948        -1.00904
C         36.93673         9.91701        -0.77220
C         36.92335        12.80914        -0.98585
C         35.69346        14.96661        -0.77680
C         35.70013        16.34672        -0.46283
C         36.93108        14.24511        -0.78966
C         36.90401        17.02716        -0.22670
C         35.67147        19.19229        -0.13591
C         36.89295        18.46403        -0.01482
C         38.22049         2.11011         0.45309
C         38.15133         3.61443         0.50992
C         39.33977         1.55723         1.30019
C         39.34861         4.35452         0.68947
C         38.16466         6.41771         0.02902
C         38.18219         7.82706        -0.25641
C         39.36984         5.76175         0.44552
C         39.41340         8.55181        -0.18911
C         38.21650        10.57015        -1.03434
C         38.21718        12.13324        -1.14117
C         39.46344         9.92232        -0.59578
C         39.45167        12.83337        -0.85632
C         38.14846        14.90904        -0.50275
C         38.14496        16.31259        -0.23568
C         39.41330        14.19013        -0.48956
C         39.35920        16.99918         0.05735
C         38.10150        19.11824         0.24237
C         39.32989        18.41014         0.30908
C         40.43911         2.29884         1.56074
C         40.52359         3.69734         1.17599
C         41.69528         4.44309         1.35356
C         40.58909         6.48727         0.58260
C         40.61837         7.89720         0.22140
C         41.73495         5.80307         1.03767
C         41.81062         8.64162         0.23569
C         40.67386        10.64384        -0.57031
C         40.74085        12.08136        -1.10880
C         41.83769         9.98126        -0.14369
C         41.93192        12.84663        -0.61026
C         40.62377        14.88153        -0.17495
C         40.60536        16.29071         0.10743
C         41.85682        14.13358        -0.19464
C         41.77966        17.01512         0.41895
C         40.53791        19.08828         0.60899
C         41.73870        18.38997         0.66531
O         11.97357         9.34680         2.19507
O         19.63831         9.13543         2.03393
O         24.21750        14.52281         2.11054
O          9.48175        16.87308        -1.93818
O         21.17131        15.71626        -0.82029
O         16.56610        12.61222         2.28006
O         38.27867        11.25507        -2.33213
O          6.09421         2.44138         1.23190
O          3.94757        14.65216        -1.82352
O         33.16157         3.06804         1.90635
O         34.06009        16.75592         1.19967
H         34.77575        17.12266         1.75954
O         17.19898         0.24177         0.86748
H         17.21462         0.66112         1.75209
O         22.03318         4.35250        -2.24848
H         22.88010         4.79495        -2.52144
O          7.16678        14.59372         1.29543
H          7.87794        14.10968         1.76793
O         14.56272         9.96422         2.76240
H         13.63081         9.70762         2.97828
O          5.06644         9.84101        -2.41543
H          4.24732         9.44777        -2.78610
O          7.11736        17.54249        -2.36779
H          8.03132        17.59055        -2.74351
O         13.42842         6.09949         2.56035
H         14.20963         6.57150         2.92186
O         35.80728         6.04920        -2.08839
H         36.64155         6.45569        -2.40781
O         29.44013         0.14698         0.74232
H         29.38425         0.43145         1.67744
O         24.89677        18.78925         2.29484
H         25.77410        18.38388         2.50533
O          4.41530        17.51946        -2.17507
H          5.28456        17.72225        -2.59688
O          7.51894         8.39786        -2.05318
H          6.75666         8.89578        -2.44412
O          9.88650        18.04371         1.57857
H          9.94366        18.86740         2.10783
O          3.63605         1.69462         1.82995
H          4.55433         1.91042         2.11649
O         38.59956         1.77982        -0.94951
H         39.46246         2.21546        -1.11898
O         33.55500        16.81846        -2.42149
H         32.80801        16.50994        -2.97589
O         33.33801        12.47406         0.71353
H         32.67767        11.93804         1.20206
O         22.30288         9.73136         2.40174
H         21.41352         9.42617         2.70877
O         34.38235        12.68229        -2.79585
H         35.20313        13.06757        -3.17041
O         31.78251        12.60561        -2.66010
H         32.65988        12.76477        -3.08585
O         20.62774         6.76722        -1.83393
H         20.89548         5.94072        -2.30964
O         40.90358        11.94797        -2.55873
H         40.04927        11.58189        -2.89680
O         18.46078        10.61098        -1.06839
H         17.71293        11.13058        -1.43105
O         26.84805        10.07558        -2.13995
H         27.66671         9.71756        -2.54482
O         32.05761         8.71706         1.43027
H         32.05884         7.81077         1.80840
O         21.96419        17.20822         2.44349
H         22.73440        17.68192         2.82926
O         27.44781        17.27049         2.01330
H         27.51576        16.36482         2.38591
O         24.48861         5.72547        -2.22146
H         25.33408         5.35593        -2.55640
O         12.48175        17.04927        -1.97893
H         11.58375        17.19258        -2.35366
H          0.31497         1.48360        -0.85413
H          0.37473         3.94139        -1.00807
H          2.22850         0.22099         0.05415
H          0.23521         5.81842        -0.68844
H          0.23417         8.24170        -0.84466
H          0.22262        10.11741        -0.34468
H          0.21996        12.56119        -0.15887
H          0.66295        14.15155         1.31478
H          0.78782        16.56237         1.87125
H          1.84895        18.80366         1.63104
H          4.55434         0.84102        -1.31315
H          3.83703        20.12287         0.98604
H          7.47178         0.42268        -1.04684
H          6.11430        20.08312         0.60489
H          9.74821         0.36914        -0.43798
H          8.45264        20.14976         0.47352
H         12.20184         0.32667        -0.17973
H         11.07592        20.30813         0.06237
H         14.66104         0.31593        -0.08818
H         13.54829        20.33477        -0.00282
H         17.09379         0.76102        -1.11523
H         15.98860        20.33339         0.01793
H         19.62593         0.34085        -0.15115
H         18.45081        20.35503         0.14249
H         22.06050         0.34018        -0.16294
H         20.94178        20.34473         0.10073
H         24.53897         0.33039         0.04182
H         23.43740        20.32940         0.21392
H         27.03425         0.32856         0.10640
H         25.82624        20.28831        -0.07877
H         29.62576         0.94721        -1.13695
H         28.25430        20.31728        -0.47689
H         31.91198         0.33881         0.45538
H         30.74517        20.35925        -0.41239
H         34.47470         0.33333         0.58599
H         33.23346        20.34858        -0.41473
H         36.88364         0.36737         0.86395
H         35.71208        20.29233        -0.11016
H         39.29534         0.49987         1.60137
H         38.10485        20.20684         0.40206
H         41.29229         1.86154         2.10191
H         42.59810         3.94933         1.74122
H         42.68250         6.34194         1.17158
H         42.75260         8.17043         0.54652
H         42.79714        10.51287        -0.10675
H         42.92096        12.37293        -0.68199
H         42.78635        14.63741         0.10528
H         42.74981        16.50411         0.47059
H         40.51471        20.17077         0.79898
H         42.67018        18.92289         0.90256
