         651
 CSIRO Nanostructure Databank - Neutral Graphene Oxide Data Set
C          6.75034        31.51887        -3.09053
C          6.82018        32.87184        -3.26736
C          9.18768        27.35914        -2.03572
C          9.01249        28.73507        -1.81326
C          7.93491        29.44166        -2.48022
C          8.64222        31.56651        -1.45072
C          7.74884        30.79185        -2.33920
C          8.80401        33.04656        -1.73949
C          7.90337        33.66620        -2.74505
C          9.18548        35.74830        -2.59767
C          8.05190        34.99777        -3.05978
C          9.25036        37.11531        -2.72233
C         11.64762        23.15219        -1.40375
C         11.72058        24.59890        -1.51439
C         10.55949        25.34670        -1.96659
C         11.27709        27.34143        -0.70986
C         10.35809        26.68027        -1.56220
C         10.91389        28.67984        -0.12261
C          9.90681        29.41778        -0.96582
C         10.98602        31.62649        -0.28632
C          9.74727        30.84812        -0.73860
C         11.11625        33.02529        -0.76410
C         10.10591        33.67009        -1.44751
C         11.43752        35.79281        -1.44806
C         10.40488        34.96731        -2.16525
C         11.47628        37.18931        -1.60616
C         10.38435        37.87492        -2.26226
C         11.50102        40.03803        -1.90159
C         10.43550        39.25470        -2.42759
C         11.62390        41.39121        -2.21560
C         13.61467        18.79528        -0.48474
C         13.60272        20.22867        -0.34519
C         12.57043        21.00346        -0.83512
C         13.59201        23.11030         0.12784
C         12.59602        22.43438        -0.70255
C         13.65168        24.48512         0.15464
C         12.80540        25.30856        -0.74450
C         13.20839        27.21574         0.90815
C         12.67694        26.81136        -0.48305
C         13.20022        28.74906         0.99273
C         12.15113        29.48958         0.23381
C         13.36636        31.63737         0.52682
C         12.20881        30.85759         0.10428
C         13.40762        33.01409         0.23263
C         12.37875        33.70550        -0.49993
C         13.70292        35.84467        -0.47936
C         12.47312        35.08937        -0.78001
C         13.68661        37.31469        -0.51234
C         12.56915        37.96927        -1.07690
C         13.58663        40.16039        -0.55731
C         12.55492        39.39348        -1.13659
C         13.35309        41.66852        -0.39765
C         12.58670        42.24562        -1.61049
C         13.38461        44.60880        -1.50107
C         12.66553        43.54169        -2.12225
C         14.01674        45.69894        -2.05365
C         15.86662        14.52481         0.65213
C         15.90834        15.93531         0.49980
C         14.74805        16.63891         0.05522
C         15.96408        18.86508         0.15727
C         14.72773        18.02742        -0.10127
C         15.48431        19.98042         1.06267
C         14.57203        20.85405         0.56244
C         15.84839        23.01745         1.28248
C         14.47058        22.29698         1.07595
C         15.87287        24.43154         1.26843
C         14.67580        25.19476         0.91677
C         15.69999        27.27617         1.76557
C         14.56258        26.54741         1.16618
C         15.65829        28.79515         1.86113
C         14.39400        29.52041         1.47342
C         15.59278        31.68110         1.63319
C         14.48533        30.98180         1.18194
C         15.51358        33.13938         1.72927
C         14.44055        33.82795         0.90429
C         15.78602        36.02740         0.98857
C         14.75410        35.18319         0.37826
C         15.87755        37.37817         0.64623
C         14.77447        38.05764        -0.00992
C         15.85725        40.21001         0.50268
C         14.73049        39.49168        -0.02927
C         15.76924        41.68211         0.57759
C         14.63986        42.39653        -0.01863
C         15.93253        44.54377         0.04777
C         14.70624        43.76741         0.03852
C         15.98879        45.90992        -0.49222
C         15.04923        46.44806        -1.37289
C         16.21116        48.70670        -1.18804
C         15.19431        47.85827        -1.90565
C         16.20121        50.07881        -1.35525
C         18.19372        10.12206         1.21524
C         18.18719        11.62589         1.00129
C         17.02051        12.34856         0.97058
C         18.27299        14.47738         1.08134
C         17.02791        13.78835         0.91539
C         18.28943        15.90762         1.11050
C         17.12922        16.62165         0.78841
C         18.24231        18.69594         1.60017
C         17.29588        18.11147         0.50244
C         18.37161        20.21347         1.56634
C         17.23607        20.95671         1.80359
C         18.33371        23.06221         1.55791
C         17.09122        22.35458         1.53639
C         18.29225        24.47292         1.69815
C         17.06985        25.15851         1.58379
C         18.17406        27.34861         1.94038
C         17.03236        26.60862         1.74261
C         18.14921        28.82476         2.28568
C         16.90931        29.55023         1.82828
C         18.09062        31.80238         2.24446
C         16.78887        30.99281         2.27932
C         17.99411        33.17972         2.36418
C         16.72609        33.91307         2.15374
C         18.16037        36.06634         1.78660
C         16.84073        35.39412         1.80144
C         18.20861        37.42249         1.47237
C         17.04254        38.13319         1.03630
C         18.13246        40.34517         1.60506
C         17.00512        39.55360         0.96140
C         18.34462        41.74560         0.90074
C         17.01804        42.49730         0.88663
C         18.45132        44.50760         0.29664
C         17.08342        43.89141         0.43921
C         18.36354        46.02159         0.30132
C         17.21627        46.66213        -0.19521
C         18.38551        48.85321        -0.04399
C         17.26621        48.07075        -0.46456
C         18.37782        50.27600        -0.24549
C         17.26509        50.89834        -0.86178
C         18.34742        53.09620        -0.63853
C         17.26174        52.30771        -1.03670
C         18.23472        54.60592        -0.74984
C         20.42631         6.11294        -0.75116
C         20.53090         7.37347        -0.17188
C         19.35949         8.07335         0.36360
C         20.57838        10.19549         0.13307
C         19.36575         9.40997         0.58304
C         20.64324        11.61593         0.65490
C         19.45562        12.32000         0.93540
C         20.74522        14.44526         0.99844
C         19.48964        13.74650         1.05367
C         20.80143        15.86256         1.13960
C         19.56920        16.61298         1.26618
C         20.81810        18.74648         1.00366
C         19.57254        17.99321         1.39252
C         20.83826        20.22991         1.34477
C         19.60790        20.92962         1.43257
C         20.82249        23.08493         1.59084
C         19.58134        22.35086         1.56128
C         20.80439        24.47596         1.77170
C         19.54401        25.16042         2.04411
C         20.72028        27.46284         1.95612
C         19.48658        26.70623         2.15809
C         20.70930        28.85487         1.78511
C         19.39386        29.56631         1.79776
C         20.72626        31.70042         2.06861
C         19.38092        31.07926         1.98663
C         20.97469        32.95625         2.63029
C         19.09806        34.04427         2.71903
C         20.61308        36.04241         2.51261
C         19.29396        35.36006         2.31299
C         20.69081        37.47083         2.13115
C         19.49987        38.12780         1.57701
C         20.63014        40.36375         2.14455
C         19.46528        39.63758         1.55127
C         20.59609        41.87247         2.21378
C         19.44019        42.58208         1.58089
C         20.60832        44.76484         1.64286
C         19.44366        43.91936         1.30805
C         20.69253        46.15180         1.15845
C         19.51906        46.79449         0.65144
C         20.61158        49.02206         1.14366
C         19.49841        48.20698         0.53728
C         20.66653        50.42754         0.61777
C         19.53051        51.06787         0.10300
C         20.66725        53.32837         0.28559
C         19.49907        52.49171        -0.09221
C         20.73394        54.74744        -0.22601
C         19.56066        55.31386        -0.92755
C         20.88496        57.27723        -1.57122
C         19.64402        56.52665        -1.53906
C         20.95168        58.55048        -2.12659
C         22.55542         3.69313        -2.65456
C         21.44901         4.25324        -2.03662
C         22.83815         6.11766        -1.24763
C         21.56015         5.48582        -1.33720
C         22.96790         7.34288        -0.52525
C         21.81599         7.98917        -0.05327
C         23.14962        10.14982         0.31518
C         21.85358         9.40102         0.39213
C         23.03249        11.59793        -0.01802
C         21.86406        12.32210         0.55645
C         23.28406        14.37091         0.71431
C         21.93021        13.70558         0.74882
C         23.24516        15.88032         0.77454
C         22.06800        16.54142         1.10577
C         23.28277        18.76734         1.04388
C         22.06723        18.00382         1.51798
C         23.31880        20.18990         1.52932
C         22.04751        20.94884         1.44010
C         23.33446        23.07983         1.59964
C         22.07257        22.36362         1.55000
C         23.34385        24.56784         1.95920
C         22.05117        25.27751         1.50943
C         23.28867        27.47521         1.84607
C         22.00420        26.71766         2.00625
C         23.28777        28.99281         1.77965
C         21.90182        29.58810         1.56121
C         23.09658        31.75044         1.39469
C         21.88700        31.01530         1.60176
C         23.17777        33.14176         1.63039
C         22.06989        33.77034         2.29339
C         23.25966        35.98078         2.34945
C         21.97381        35.22146         2.54518
C         23.17060        37.44962         2.05917
C         21.89114        38.20740         2.20002
C         23.12441        40.38345         1.95891
C         21.92541        39.63293         2.12028
C         23.13665        41.78850         1.84167
C         21.95540        42.58010         2.39207
C         23.11871        44.72955         1.48145
C         21.89781        44.05954         2.00817
C         23.15381        46.20173         1.47811
C         21.91987        46.88051         1.31340
C         23.16597        48.95965         1.03620
C         21.94204        48.29621         1.12383
C         23.17340        50.38419         0.63474
C         21.91896        51.17150         0.82796
C         23.26128        53.31382         0.30093
C         21.96531        52.64845         0.62401
C         23.28985        54.66435        -0.15337
C         22.05692        55.36868        -0.48054
C         23.36504        57.27828        -1.35988
C         22.07742        56.61498        -1.07831
C         23.34467        58.76316        -1.47910
C         22.14673        59.34867        -2.11044
C         23.49903        61.31078        -2.69460
C         22.23915        60.63173        -2.61991
C         23.80564         4.33463        -2.60860
C         25.24741         6.21107        -1.86796
C         23.96564         5.53838        -1.91185
C         25.43544         7.34059        -1.12800
C         24.32000         7.91473        -0.36770
C         25.57549        10.18158        -0.51697
C         24.43357         9.44987         0.00303
C         25.46241        11.60589        -1.04596
C         24.18469        12.33650        -0.59833
C         25.49839        14.55192        -0.56721
C         24.21013        13.82640        -0.37888
C         25.60265        15.91880         0.00751
C         24.51057        16.56032         0.55365
C         25.85078        18.78821         0.71975
C         24.52936        18.05133         0.66898
C         25.88064        20.23288         1.19170
C         24.61452        20.93425         1.62079
C         25.79425        23.21136         1.43043
C         24.54449        22.42191         1.56368
C         25.74941        24.64750         1.04371
C         24.54384        25.36084         1.42747
C         25.67794        27.52784         1.00045
C         24.49068        26.73445         1.38438
C         25.53299        28.95988         0.61009
C         24.34268        29.59963         0.86550
C         25.40842        31.85743         0.25253
C         24.20151        31.06329         0.68702
C         25.51386        33.25089         0.75835
C         24.42255        33.85265         1.39455
C         25.72819        36.01831         1.59538
C         24.53014        35.24734         1.90107
C         25.74686        37.45614         1.90524
C         24.42994        38.18212         1.80034
C         25.56767        40.36627         1.33398
C         24.47252        39.69350         2.16754
C         25.55125        41.83764         1.28549
C         24.37300        42.49139         1.55297
C         25.65842        44.70850         1.40102
C         24.37650        43.96091         1.30624
C         25.64163        46.14813         1.47345
C         24.40455        46.87110         1.40044
C         25.67398        48.97757         1.07295
C         24.41437        48.28076         1.16351
C         25.71572        50.40259         0.81315
C         24.46286        51.12447         0.53733
C         25.72603        53.24538         0.31222
C         24.46470        52.60171         0.44718
C         25.76019        54.61979        -0.05176
C         24.55458        55.27836        -0.36190
C         25.90515        57.38949        -0.90712
C         24.64217        56.60575        -0.99569
C         25.91816        58.71716        -1.30078
C         24.67555        59.48672        -1.52562
C         24.66970        60.76695        -2.24392
C         26.79866         7.96511        -0.92174
C         27.92283        10.20154        -1.13456
C         26.77161         9.49098        -0.86447
C         28.03642        11.63528        -0.69456
C         26.73403        12.39987        -0.82899
C         28.02316        14.47793        -0.77769
C         26.74733        13.76433        -0.78695
C         28.08133        15.82296        -0.48987
C         26.83588        16.69795        -0.39695
C         28.31855        18.23968         0.79263
C         27.03463        17.89454         0.51830
C         28.37181        20.44471         1.18751
C         27.13659        21.01413         1.36722
C         28.18993        23.13940         0.43606
C         27.07856        22.48850         1.22796
C         28.12123        24.60462         0.11247
C         26.85161        25.29162         0.51338
C         27.87387        27.50500        -0.34220
C         26.87783        26.76704         0.49333
C         27.90641        28.98049        -0.16825
C         26.72187        29.64667         0.11698
C         27.96797        31.82228        -0.04871
C         26.64868        31.11749        -0.27515
C         27.94802        33.22907         0.24161
C         26.78458        33.91796         0.61109
C         28.15243        36.03606         0.95642
C         26.78380        35.43605         0.69300
C         28.23200        37.50673         1.26859
C         26.98155        38.25583         1.59827
C         28.05257        40.41655         0.55738
C         26.82305        39.63173         1.02257
C         28.06835        41.80627         1.22934
C         26.79689        42.58836         0.84186
C         28.15043        44.65729         1.70715
C         26.83754        44.00492         1.35618
C         28.13323        46.14486         1.46374
C         26.89238        46.85122         1.43278
C         28.16261        49.04962         1.43930
C         26.87667        48.26999         1.27113
C         28.18923        50.29308         0.55447
C         26.91807        51.09870         0.68562
C         28.20782        53.19297         0.34944
C         26.94552        52.49963         0.44019
C         28.22085        54.57698         0.06954
C         27.03635        55.30546        -0.18683
C         27.07849        56.66883        -0.54812
C         29.21083        12.39131        -1.25188
C         30.44567        14.53221        -1.44291
C         29.25146        13.76795        -1.15030
C         30.52675        15.88843        -1.13158
C         29.36382        16.47708        -0.50703
C         30.45863        18.65861        -0.41456
C         29.46184        17.73692         0.06337
C         30.08386        19.99062        -0.63023
C         29.24532        20.90492         0.11240
C         30.47349        23.28982        -1.42827
C         28.94731        22.16550        -0.38584
C         30.36376        24.62034        -1.10160
C         28.97093        25.22909        -1.04691
C         30.31347        27.52691        -1.11367
C         29.02554        26.77554        -0.97371
C         30.26417        28.96911        -1.00245
C         29.11338        29.67142        -0.59294
C         30.38798        31.80550        -0.62066
C         29.13116        31.12174        -0.42096
C         30.47624        33.23407        -0.25478
C         29.25192        33.94136         0.21423
C         30.47583        36.12305         0.12935
C         29.30471        35.41373         0.29687
C         30.50267        37.54012         0.35162
C         29.39083        38.25636         0.77035
C         30.51511        40.43330         0.51784
C         29.36400        39.69032         0.73382
C         30.53889        41.86784         0.63886
C         29.34181        42.57748         0.94508
C         30.59456        44.67036         0.99312
C         29.36719        43.95434         1.14227
C         30.60867        46.09361         1.10728
C         29.37952        46.82860         1.27975
C         30.64451        48.94102         1.06102
C         29.41433        48.23729         1.22112
C         30.64036        50.37638         0.96155
C         29.45829        51.09223         0.76049
C         29.42333        52.48409         0.57299
C         31.67822        16.74365        -1.32877
C         32.83613        18.95869        -1.26943
C         31.64817        18.12134        -1.08370
C         32.92380        20.35700        -1.28757
C         31.74458        21.17201        -1.48643
C         32.88267        23.25083        -0.79554
C         31.69152        22.53607        -1.34758
C         32.80623        24.71265        -1.15531
C         31.59780        25.39068        -1.14477
C         32.80249        27.55133        -1.41521
C         31.53139        26.84447        -1.26061
C         32.80827        29.00263        -1.42745
C         31.47374        29.73394        -1.52571
C         32.77500        31.91281        -1.18430
C         31.53344        31.16938        -1.05068
C         32.84361        33.28445        -1.08621
C         31.60169        34.03961        -0.83717
C         32.96504        36.21954        -0.49321
C         31.64672        35.52818        -0.58193
C         32.99421        37.50710         0.01347
C         31.71473        38.26425        -0.04309
C         33.03663        40.44295         0.21932
C         31.74681        39.75174         0.10373
C         33.03193        41.82862         0.38610
C         31.78575        42.55268         0.55884
C         33.06838        44.66566         0.69064
C         31.80730        43.95953         0.73342
C         33.06048        46.06670         0.81012
C         31.85045        46.79646         0.97395
C         31.84919        48.21332         0.98342
C         34.15970        21.13058        -1.24131
C         35.36519        23.30714        -1.12072
C         34.16635        22.51274        -1.12537
C         35.33364        24.68403        -1.26140
C         34.04158        25.37062        -1.66559
C         35.27005        27.52995        -1.78231
C         34.00323        26.85616        -1.45703
C         35.26305        29.03086        -1.90356
C         33.99458        29.69698        -1.52069
C         35.33241        31.86329        -1.17475
C         34.03680        31.13889        -1.20882
C         35.40985        33.33630        -1.53755
C         34.07702        34.06335        -1.37687
C         35.50110        36.19538        -1.04630
C         34.14599        35.54803        -1.10399
C         35.66492        37.65262        -1.37197
C         34.15698        38.26856         0.41180
C         35.51864        40.37668         0.11353
C         34.24548        39.67646         0.23723
C         35.50019        41.78460         0.25596
C         34.29723        42.53011         0.41779
C         34.28259        43.93348         0.54341
C         36.53571        25.46406        -1.25535
C         37.76331        27.58927        -1.45831
C         36.55048        26.82191        -1.52256
C         37.80935        28.96377        -1.57014
C         36.60545        29.77948        -2.01363
C         37.77776        31.76821        -1.05446
C         36.60984        31.14324        -1.37494
C         37.76948        33.15924        -0.50629
C         36.53977        33.98456        -0.73168
C         37.93613        36.11425        -0.64376
C         36.62847        35.46598        -0.80006
C         37.96389        37.55759        -0.51815
C         36.81793        38.33414        -0.67925
C         36.72416        39.68782        -0.22367
C         39.03875        29.69804        -1.41522
C         40.26339        31.85539        -1.16193
C         39.04448        31.06698        -1.22407
C         40.27904        33.15409        -0.78926
C         39.08786        33.85904        -0.18299
C         39.06845        35.35069        -0.46484
O         23.08017        11.89459        -1.46993
O         24.72087         8.38292         0.94740
O         26.78293        23.08092         2.53950
O         26.84798        27.31149         1.86065
O         16.44430        34.93044         3.15044
O         14.88812        35.20354        -1.09146
O         24.29608        31.62176        -0.68480
O         19.51067        25.84511         3.34746
O         15.45363        27.93339         3.07323
O          9.89897        31.30889         0.64897
O         13.50681        44.47811        -0.10184
O         14.31136        33.69948         2.35036
O         23.61765        18.61714        -0.35635
O         33.85441        35.03427        -2.45725
O         28.49571        36.49086         2.29237
O         27.90209        27.27568        -1.79928
O         20.40230        54.45442         1.18854
O         28.60721        19.20330         1.76095
O         34.97863        38.21070        -2.21393
O         13.04726        25.05171        -2.16558
O         24.42696        14.55246        -1.60564
O         23.65944        37.75432         0.66347
O         23.76918        50.56481        -0.69083
O         24.19238        35.52099         3.34998
O         30.58558        20.48805        -1.84903
O         23.81447        59.47559        -0.29864
O         29.29515        22.54531        -1.67117
O         34.73196        31.46653         0.09581
O          8.00837        32.55873        -0.60032
O         19.78443        38.94111         0.34701
O         21.16225        44.77279         3.02028
O         24.68481        39.79674         3.51825
O         36.78198        33.37311         0.57143
O         25.74724        39.70302         0.02479
O         35.13278        28.18395        -3.11061
O         18.74683        41.55493        -0.41540
O         26.57986        38.04052         2.97304
O         28.95011        24.12381         1.22297
O         31.58624        39.09660        -1.23553
O         23.99906        20.34830         2.83164
O         22.82755        27.01759         3.17162
O         21.95346        52.07400         1.99731
O         25.82170        19.89333        -0.26378
O         20.29931        41.05954         3.39304
O         13.27708        29.22320         2.38451
O         22.56628         9.77717         1.60317
O         16.06824        42.21051         1.95589
O         16.10837        20.27257         2.27236
O         31.24103        34.98533        -1.88983
O         23.53031        44.24857         0.12907
O         30.25658        33.40682         1.18801
O         19.20152        30.41212         0.64539
O         24.13955        56.59233        -2.40450
O         20.04830        33.45691         3.54639
O         21.30849        35.68815         3.74422
O         22.06434        18.01243         2.96626
H         22.48966        18.83855         3.28570
O         17.31772        54.97627        -1.77917
H         17.68983        54.70116        -2.64169
O         18.10125        18.15354        -0.71323
H         17.52457        17.88953        -1.46342
O         18.97728        44.13223        -1.00989
H         18.98006        43.12142        -1.02481
O         23.68509        29.47042         3.10279
H         23.35988        28.80175         3.75164
O         17.80380        40.53005         2.98111
H         16.97891        41.07614         3.02510
O         35.79267        33.39190        -2.92452
H         35.28126        34.12735        -3.34017
O         27.72451         7.52684        -1.91045
H         27.44205         7.87880        -2.77925
O         28.27462        11.54035         0.77141
H         28.54270        12.43275         1.07952
O         33.98989        25.21639        -3.13991
H         34.41343        26.00683        -3.54220
O         12.44711        41.80010         0.73584
H         12.36545        42.76140         0.92246
O         17.70455        18.28489         2.87316
H         18.30834        18.59488         3.57895
O         13.82036        22.29243         2.37003
H         14.34535        21.70650         2.95698
O         36.82605        30.04518        -3.42966
H         36.44463        29.28024        -3.92139
O         32.78245        23.19969         0.67540
H         32.90283        22.26685         0.95294
O         35.09203        37.59133         1.12081
H         35.81083        38.19564         1.40354
O         16.46224        30.95186         3.70931
H         15.66438        30.38991         3.82200
O         22.11902        25.40635         0.05092
H         22.06795        24.50758        -0.33948
O         22.26448        42.60926         3.80756
H         21.80023        41.84309         4.22366
O         28.17645        49.51864         2.82245
H         28.26544        48.73733         3.40733
O         26.73097        42.71864        -0.60516
H         25.91700        43.22065        -0.82555
O         20.49619        10.30470        -1.31960
H         19.67396        10.78918        -1.54280
O         10.21573        28.45732         1.16135
H          9.97565        29.35298         1.49799
O         28.02202        41.58441         2.65400
H         28.14287        42.45638         3.10405
O         39.28379        33.77462         1.26213
H         38.38158        33.77631         1.66000
O         25.37598        11.45259        -2.49668
H         24.42694        11.56357        -2.74202
O         13.53459        27.49750        -1.44155
H         13.52559        26.93886        -2.25675
O         26.60577        17.18507        -1.74793
H         25.83970        17.79933        -1.72306
O         18.22407        28.86186         3.74201
H         17.38454        28.47702         4.08211
O         28.30057        24.85882        -2.26613
H         27.84414        25.66123        -2.61363
O         26.46686        35.90326        -0.66797
H         25.57479        35.57733        -0.91394
O         15.54772        47.80859        -3.30622
H         16.42765        47.38423        -3.38086
O         28.21442        49.81504        -0.81954
H         28.19080        50.59284        -1.41507
O         11.04772        34.54856        -3.43229
H         11.36334        35.36139        -3.88231
O         12.28537        26.70482         1.88259
H         12.38292        27.25209         2.69296
O         16.98310         9.50438         0.79001
H         16.25869         9.78813         1.38205
O         23.38119        24.56745         3.39854
H         24.25325        24.22629         3.68755
O         20.86281        18.67837        -0.45080
H         19.93573        18.58528        -0.77923
O         23.97452        13.93798         1.94300
H         23.43879        14.23272         2.71038
O         26.53333        31.10242        -1.73405
H         25.56764        31.07654        -1.93765
O         16.20357        19.53829        -1.12104
H         16.97730        20.13168        -1.01375
O         28.28139        44.44765         3.18726
H         27.51526        44.89012         3.61339
O         31.25631        29.81670        -2.98004
H         30.34137        30.13752        -3.13131
O         27.98981        40.55221        -0.87143
H         27.03895        40.52764        -1.13332
O         20.26619        49.15914         2.57915
H         20.75722        49.93395         2.93049
H          5.95669        30.94177        -3.58733
H          6.07117        33.37693        -3.89530
H          8.47791        26.81446        -2.67419
H          7.27946        28.86673        -3.15089
H          7.29411        35.50349        -3.67839
H          8.39129        37.66472        -3.13734
H         10.83601        22.62214        -1.92402
H          9.78188        24.83030        -2.54742
H          9.62417        39.76363        -2.96941
H         10.92797        41.82897        -2.94833
H         12.71062        18.29861        -0.86810
H         11.76665        20.54765        -1.43162
H         12.15113        43.74442        -3.07612
H         13.79807        45.99924        -3.09011
H         14.91802        13.99634         0.47443
H         13.83100        16.06307        -0.14140
H         14.19209        48.35909        -1.85995
H         15.38213        50.55230        -1.91686
H         18.29233         9.97510         2.33956
H         16.04889        11.83127         0.96317
H         16.38949        52.79588        -1.49544
H         17.79088        54.97346         0.21774
H         19.44524         5.62025        -0.81979
H         18.45453         7.48487         0.57710
H         18.74616        56.96540        -2.00026
H         20.03843        58.99128        -2.55481
H         22.45588         2.74426        -3.19983
H         20.47000         3.75652        -2.09456
H         23.52371        62.28701        -3.20035
H         21.35172        61.11464        -3.05383
H         24.66845         3.88843        -3.12332
H         26.09830         5.76785        -2.40720
H         26.87796        59.25348        -1.36166
H         25.62770        61.27157        -2.43751
H         27.18380         7.60100         0.07045
H         28.82832         9.66482        -1.45625
H         29.18906        55.09545         0.00243
H         28.05019        57.18476        -0.57157
H         30.11021        11.83096        -1.54918
H         31.31204        14.00502        -1.86982
H         31.60337        50.90969         0.98359
H         30.36488        53.05407         0.60593
H         32.58790        16.29613        -1.75952
H         33.78941        18.40521        -1.32753
H         34.00979        46.61978         0.75139
H         32.80100        48.75257         0.86709
H         35.11735        20.59572        -1.34374
H         36.33914        22.79843        -1.03175
H         36.45049        42.33461         0.17472
H         35.23480        44.48570         0.53995
H         37.48545        24.95702        -1.02288
H         38.69369        27.04386        -1.23301
H         38.88404        38.01885        -0.12505
H         37.66960        40.23549        -0.07355
H         39.98902        29.14199        -1.40137
H         41.19858        31.37044        -1.48202
H         41.23182        33.70520        -0.78667
H         40.02491        35.87304        -0.30183
