         344
 CSIRO Nanostructure Databank - Neutral Graphene Oxide Data Set
C          1.12467         3.47309        -0.14830
C         -0.00376         4.07363         0.36501
C          1.20992         6.18180         0.60775
C          0.05175         5.41632         0.77359
C          1.23360         7.54963         1.14342
C          0.06616         8.20199         1.45438
C          1.21619        10.22843         2.12248
C          0.06302         9.51072         2.03132
C          1.27024        12.51007         1.93192
C          0.06878        13.21713         1.77500
C          1.26571        14.90000         0.53275
C          0.05018        14.36930         1.00938
C          1.27890        16.23801        -0.02780
C          0.08649        16.88638        -0.42795
C          1.25591        19.00796        -0.67583
C          0.07756        18.23106        -0.75342
C          1.22404        20.45453        -0.79712
C          0.00866        21.17624        -0.89387
C          1.17888        23.30581        -0.67748
C         -0.01473        22.55886        -0.83938
C          1.16288        24.76903        -0.55769
C         -0.01742        25.51721        -0.42713
C          1.19817        27.65171        -0.35463
C          0.00575        26.91012        -0.27002
C          1.19726        29.02630         0.12323
C          3.47800         3.39533        -0.63440
C          2.33312         4.20059        -0.36322
C          3.53498         6.44500        -0.15738
C          2.36443         5.61962        -0.04143
C          3.79177         7.55477         0.84798
C          2.53812         8.22600         1.39229
C          3.69400        10.60269         1.35970
C          2.54040         9.71694         1.72438
C          3.68946        12.01883         1.26315
C          2.48458        12.87211         1.31928
C          3.72692        14.87741         0.50881
C          2.48917        14.19064         0.73671
C          3.73644        16.27748         0.21147
C          2.49942        16.95345        -0.08654
C          3.71503        19.08397        -0.37091
C          2.48535        18.34768        -0.38845
C          3.70558        20.48697        -0.60049
C          2.43499        21.18996        -0.71610
C          3.70011        23.32009        -0.38648
C          2.40006        22.60404        -0.65746
C          3.64885        24.80146        -0.66467
C          2.40040        25.48267        -0.60355
C          3.63058        27.55446        -0.87961
C          2.39424        26.91166        -0.64815
C          3.61062        29.54042        -0.04324
C          2.26936        29.83037         0.41882
C          5.99159         3.50728        -0.91383
C          4.67569         3.92579        -1.13135
C          5.96649         6.57736        -0.70123
C          4.65277         6.06104        -0.89565
C          5.96397         8.06486        -0.45285
C          4.84423         8.56703         0.44017
C          6.20031        10.57245         1.02662
C          4.87035         9.86927         0.88475
C          6.15014        12.06019         0.86372
C          4.93404        12.73769         0.97187
C          6.16034        14.90997         0.76938
C          4.95261        14.19042         0.76054
C          6.18960        16.33056         0.53081
C          4.94998        17.00715         0.22191
C          6.14737        19.16774        -0.07506
C          4.94646        18.42142        -0.07350
C          6.15335        20.53156        -0.46504
C          4.92486        21.18777        -0.69595
C          6.16613        23.39939        -0.90664
C          4.86866        22.64202        -1.09919
C          6.11898        24.77807        -0.83803
C          4.86221        25.49486        -0.71265
C          6.07067        27.70109        -0.43904
C          4.87346        26.93104        -0.71191
C          6.05218        29.04604         0.08175
C          4.83956        29.72651         0.53586
C          8.37517         3.67202        -0.99461
C          7.14226         4.35189        -1.00681
C          8.42030         6.49358        -0.85176
C          7.13846         5.82051        -0.91602
C          8.47420         7.92514        -0.55413
C          7.31092         8.62823        -0.14651
C          8.58623        10.65942         0.25196
C          7.36690         9.94804         0.30068
C          8.60727        12.07592         0.56175
C          7.40488        12.74840         0.80212
C          8.70551        14.92897         1.07761
C          7.38829        14.17903         1.28002
C          8.68317        16.41483         0.81785
C          7.38714        17.06869         0.57102
C          8.66428        19.18290        -0.02158
C          7.39249        18.57390         0.52721
C          8.62213        20.53338        -0.47196
C          7.41564        21.24085        -0.63513
C          8.61842        23.37985        -1.00257
C          7.42248        22.66730        -0.92159
C          8.63354        24.85404        -1.07560
C          7.33570        25.59940        -0.97022
C          8.52776        27.68985        -0.29747
C          7.32276        27.02391        -0.53246
C          8.52740        29.07561         0.05587
C          7.28189        29.68948         0.31781
C         10.83151         3.61010        -0.99005
C          9.62526         4.33133        -0.98703
C         10.90663         6.43754        -0.92379
C          9.63222         5.77682        -0.94591
C         10.93841         7.93632        -1.06137
C          9.70217         8.61156        -0.52943
C         11.02218        10.67333        -0.14806
C          9.75716         9.97535        -0.16352
C         11.05238        12.09686         0.09993
C          9.86508        12.79380         0.46523
C         11.11844        14.91258         0.43002
C          9.91918        14.19449         0.65944
C         11.12815        16.36102         0.34496
C          9.92299        17.08482         0.36933
C         11.14400        19.16413        -0.17511
C          9.88398        18.47645         0.03337
C         11.16362        20.55218        -0.44370
C          9.89501        21.18793        -0.82193
C         11.18173        23.41153        -0.85542
C          9.91325        22.68652        -1.07451
C         11.14595        24.88794        -1.16080
C          9.87474        25.50938        -0.50242
C         11.03101        27.68860         0.06566
C          9.84652        27.05110        -0.68034
C         11.01471        29.19997         0.06982
C          9.75515        29.81441         0.14973
C         13.29811         3.57205        -1.02462
C         12.09825         4.26796        -0.96840
C         13.37210         6.39770        -0.71020
C         12.09894         5.72367        -0.91168
C         13.35585         7.80658        -0.40233
C         12.19726         8.53733        -0.50161
C         13.49289        10.62010        -0.20150
C         12.20840         9.95069        -0.24711
C         13.49158        12.07360        -0.55976
C         12.27026        12.79694        -0.03518
C         13.56834        14.89178        -0.06325
C         12.31300        14.19161         0.12826
C         13.57857        16.31944        -0.01589
C         12.37697        17.03997         0.11801
C         13.59082        19.19498        -0.17429
C         12.37358        18.47673        -0.04181
C         13.60004        20.57420        -0.37805
C         12.37096        21.28029        -0.48028
C         13.58466        23.48513        -0.30467
C         12.36966        22.74801        -0.59187
C         13.64316        24.89142        -0.37767
C         12.43150        25.64718        -0.79757
C         13.55796        27.76598         0.13652
C         12.35276        27.09431        -0.37713
C         13.49166        29.17707         0.36841
C         12.23310        29.86524         0.26618
C         15.78557         3.51266        -0.59892
C         14.62006         4.26892        -1.19319
C         15.82280         6.38819        -0.44958
C         14.57573         5.70486        -0.72366
C         15.85354         7.71146        -0.08237
C         14.56620         8.43715         0.23908
C         15.98536        10.56992        -0.34022
C         14.64795         9.92476        -0.04864
C         15.99773        12.07437        -0.20513
C         14.78823        12.76508        -0.24478
C         16.03793        14.86965        -0.63143
C         14.76581        14.18282        -0.23478
C         16.02192        16.33491        -0.33681
C         14.85250        17.00841        -0.13428
C         16.12766        19.17068        -0.23228
C         14.85954        18.47953         0.18202
C         16.21390        20.64768        -0.55940
C         14.84967        21.38935        -0.66275
C         16.07758        23.45247         0.15511
C         14.77563        22.68503         0.19599
C         16.00656        24.90058         0.53990
C         14.78498        25.62113         0.02630
C         15.98392        27.75445         0.47668
C         14.76901        27.04779         0.19717
C         15.94373        29.17699         0.63158
C         14.69663        29.86036         0.61849
C         18.18584         3.41495        -0.01535
C         16.99030         4.13256        -0.37723
C         18.38210         6.27949        -0.12853
C         17.08970         5.60908        -0.53537
C         18.39087         7.69351         0.27300
C         17.10645         8.39631         0.31235
C         18.40935        10.66334         0.70176
C         17.11964         9.89294         0.41625
C         18.53253        11.95115        -0.12751
C         17.25448        12.76748        -0.08973
C         18.51558        14.90768         0.00285
C         17.29498        14.15850        -0.15473
C         18.55367        16.28755        -0.14711
C         17.32566        17.03976        -0.59592
C         18.56311        19.12680         0.30101
C         17.29670        18.48153        -0.19564
C         18.57147        20.61800         0.16610
C         17.25155        21.29795         0.37832
C         18.54464        23.48724         0.21171
C         17.28661        22.79347         0.20643
C         18.53273        24.96427        -0.13992
C         17.26833        25.67035         0.27743
C         18.46993        27.81801         0.46257
C         17.24357        27.05829         0.41760
C         18.41188        29.23401         0.64652
C         17.16157        29.88871         0.74426
C         19.38836         4.04020         0.25569
C         20.71034         6.13312         0.63699
C         19.52849         5.45407         0.27111
C         20.77341         7.52240         0.67197
C         19.60346         8.34142         0.53105
C         20.84830        10.50765         0.62551
C         19.67553         9.80851         0.60609
C         20.86140        11.96116         0.65819
C         19.77174        12.70462         0.33791
C         21.00049        14.88859        -0.09133
C         19.77647        14.21474         0.49787
C         21.01477        16.21678        -0.32729
C         19.80951        17.02840        -0.17044
C         21.01050        19.25150        -0.19995
C         19.82965        18.42067        -0.10515
C         21.02069        20.58072         0.09232
C         19.81007        21.31087         0.64287
C         20.95215        23.56760         0.51351
C         19.76720        22.81492         0.39677
C         20.93762        24.97499         0.52035
C         19.77447        25.70483         0.30409
C         20.90454        27.92493         0.52409
C         19.73107        27.15070         0.42255
C         20.84620        29.31844         0.67231
C         19.62605        29.97176         0.74201
O          4.50908         5.09791        -1.89923
O         16.79538         9.14256         1.61796
O          2.82918         8.66295         2.75833
O         17.99698         6.06298        -1.58473
O          9.95101        21.71828        -2.19284
O          1.19369        11.43347         2.81871
O         12.61403        26.72746        -1.77305
O          8.90774        15.85919         2.19553
O          8.04436        25.42764        -2.27966
O          3.61717        28.88799        -1.29723
O         16.85449        21.04480         1.78741
H         17.54401        21.48381         2.33885
O         18.31312        11.11749         2.07169
H         17.99110        10.35709         2.60569
O         16.08064        14.74948        -2.10979
H         16.65851        15.49075        -2.42806
O         10.94455         8.21112        -2.51049
H         11.75252         7.79740        -2.88257
O         19.83906        21.15904         2.11698
H         19.70034        20.19331         2.28977
O          6.51347        10.36587         2.45964
H          6.99853        11.15762         2.77960
O         18.45237        18.83521         1.78077
H         17.66108        19.35370         2.07946
O          3.96388        23.18602         1.04466
H          3.21503        23.59326         1.52814
O          5.62109         8.64080        -1.77950
H          6.31948         8.36192        -2.41037
O          7.37481        19.00433         1.95025
H          6.56377        18.63058         2.35669
O          9.83528        25.10872         0.88181
H         10.42128        25.70857         1.40908
O         19.84337        14.45301         1.94095
H         19.84729        15.42419         2.07790
O         14.90181        18.56172         1.65821
H         15.64857        18.00281         1.96347
O         13.40106        12.11485        -2.03134
H         13.53101        13.04913        -2.30424
O         10.99666        24.94025        -2.59399
H         11.31736        25.83114        -2.87671
O         14.49051        22.35223         1.58545
H         15.21048        21.74298         1.89758
O          4.43036         6.85659         1.96596
H          4.30093         7.43462         2.75596
O         16.86594        20.65970        -1.85656
H         16.29962        21.17920        -2.47520
O         18.73321        11.56370        -1.50993
H         18.56726        12.34303        -2.07961
O         10.01945        27.34703        -2.08327
H          9.28525        26.88341        -2.55856
O         14.88065         4.31971        -2.65029
H         15.73687         4.78484        -2.77421
O          4.57933        22.69089        -2.52471
H          5.37513        22.38527        -3.00837
O         14.31901         8.27103         1.67653
H         15.11450         8.63298         2.13698
O          7.19370        14.05621         2.72878
H          7.61866        14.85501         3.12518
O         15.83944        24.83736         2.01507
H         15.18562        24.11481         2.18993
O         14.72879        21.81624        -2.04899
H         13.81595        22.13901        -2.20982
O         18.54413        25.01375        -1.63067
H         19.36842        24.57198        -1.92752
O         10.96235        27.35153         1.49281
H         10.25808        27.90355         1.89592
O         17.45994        17.10265        -2.08236
H         17.08965        17.96470        -2.37724
O         16.24117        10.27076        -1.74929
H         15.56004        10.74510        -2.27509
H          1.10811         2.40480        -0.40773
H         -0.92846         3.49749         0.50547
H         -0.83116         5.84362         1.26560
H         -0.90782         7.72739         1.27933
H         -0.87625         9.93818         2.40396
H         -0.83887        12.84429         2.26600
H         -0.89239        14.91432         0.87475
H         -0.85711        16.32649        -0.47538
H         -0.87372        18.69732        -1.04243
H         -0.94511        20.63912        -0.98427
H         -0.98179        23.07622        -0.90312
H         -0.98906        25.00597        -0.38009
H         -0.93629        27.43497        -0.05173
H          0.21151        29.37809         0.47152
H          3.43609         2.33522        -0.34035
H          2.09742        30.73362         1.02485
H          6.15784         2.47415        -0.57149
H          4.93057        30.37114         1.42332
H          8.36494         2.57136        -1.00677
H          7.27223        30.72826         0.68072
H         10.79935         2.51070        -1.03058
H          9.69699        30.90069         0.31676
H         13.28249         2.47230        -1.07793
H         12.23238        30.96060         0.37328
H         15.71017         2.41842        -0.49807
H         14.68589        30.95330         0.74084
H         18.12793         2.31764         0.03580
H         17.13695        30.98091         0.87613
H         20.26480         3.42604         0.51150
H         21.61024         5.54668         0.87524
H         21.73562         7.99808         0.90567
H         21.81934         9.99068         0.64791
H         21.79890        12.45161         0.96190
H         21.92302        14.30038        -0.20886
H         21.94295        16.70750        -0.65645
H         21.94858        18.78367        -0.53901
H         21.97071        21.12808        -0.00654
H         21.90290        23.05529         0.71367
H         21.87651        25.49458         0.76070
H         21.89047        27.44350         0.46726
H         21.78090        29.89261         0.73942
H         19.58394        31.06230         0.87502
