         720
 CSIRO Nanostructure Databank - Neutral Graphene Oxide Data Set
C         23.01753        27.29871        -0.98212
C         23.01633        28.72167        -0.89063
C         22.98874        31.67921        -0.73852
C         23.01455        33.04659        -0.72237
C         23.12015        35.92446        -0.32985
C         23.14535        37.29516        -0.17153
C         23.09795        40.27216        -0.13709
C         23.12602        41.65340        -0.13653
C         23.18336        44.57690        -0.24490
C         23.18714        45.97950        -0.27371
C         25.43313        24.47128        -1.25634
C         24.27281        25.17581        -1.25166
C         25.37993        27.23958        -0.33885
C         24.17288        26.55863        -0.82310
C         25.42666        28.76201        -0.38748
C         24.17358        29.46015        -0.73430
C         25.39702        31.57123        -1.12347
C         24.20450        30.91349        -0.88302
C         25.34393        33.01943        -1.64640
C         24.20195        33.79718        -1.00632
C         25.43629        35.98023        -1.18165
C         24.22741        35.18781        -0.85237
C         25.51336        37.39339        -0.76737
C         24.31034        38.07586        -0.40877
C         25.47906        40.24085        -0.60468
C         24.28088        39.52201        -0.35892
C         25.48993        41.64593        -0.70239
C         24.30924        42.37739        -0.44769
C         25.58262        44.53132        -0.78123
C         24.33746        43.83208        -0.48394
C         25.57733        45.98692        -0.81672
C         24.35447        46.68892        -0.55968
C         25.42891        48.85124        -0.90899
C         24.32486        48.13461        -0.60386
C         28.25505        23.25510        -1.61246
C         28.03000        24.43423        -0.95980
C         26.69276        25.03398        -0.72011
C         27.93225        27.27232        -0.35133
C         26.67126        26.49318        -0.32380
C         27.92053        28.69874        -0.67815
C         26.73248        29.39699        -0.70710
C         27.93420        31.51350        -1.41315
C         26.64603        30.78415        -1.24101
C         27.99793        33.01415        -1.53777
C         26.70721        33.75892        -1.62653
C         28.01735        35.93480        -1.11017
C         26.74956        35.25036        -1.43777
C         27.99761        37.31586        -0.96474
C         26.75758        38.04166        -0.82215
C         28.03740        40.27261        -0.71720
C         26.74759        39.48755        -0.55172
C         27.99566        41.67445        -1.02637
C         26.68755        42.35089        -1.30216
C         27.95595        44.57260        -1.63985
C         26.74381        43.83906        -1.07972
C         28.01884        46.03484        -1.20781
C         26.76715        46.70301        -1.06965
C         28.01886        48.94657        -1.05863
C         26.70765        48.17639        -1.18139
C         28.01724        50.37504        -0.67882
C         30.69163        23.24323        -1.20344
C         29.57054        22.68921        -1.75731
C         30.52671        24.46013        -0.36856
C         29.15169        25.10902        -0.26069
C         30.32396        27.35473         0.21244
C         29.09304        26.58555        -0.08946
C         30.45529        28.71372        -0.44023
C         29.24366        29.27598        -1.24298
C         30.29547        31.57189        -1.57145
C         29.21649        30.81027        -1.20931
C         30.44612        33.00301        -1.28272
C         29.27099        33.71535        -1.19143
C         30.65084        35.86458        -0.95637
C         29.29064        35.17148        -0.94121
C         30.61611        37.35361        -1.22092
C         29.28800        38.05375        -1.09154
C         30.44902        40.18397        -0.63262
C         29.29684        39.51688        -0.86982
C         30.38392        41.66983        -0.59289
C         29.29097        42.27552        -1.49288
C         30.53974        44.56361        -1.09786
C         29.30010        43.82076        -1.50470
C         30.48708        46.03139        -0.88740
C         29.23794        46.73394        -1.03253
C         30.40829        48.83815        -0.44019
C         29.25049        48.16732        -0.80100
C         30.38618        50.25031         0.11918
C         29.09759        50.97707        -0.16591
C         33.34140        20.58311        -1.70185
C         32.20577        21.28716        -1.90370
C         33.12597        23.10193        -0.49174
C         32.10577        22.75128        -1.56108
C         32.97401        24.41555         0.17187
C         31.74286        25.26100         0.02250
C         32.77679        27.40249         0.91632
C         31.49722        26.56908         0.84658
C         32.83739        28.82851         0.46210
C         31.94646        29.05694        -0.77009
C         33.05912        31.37275        -0.73078
C         32.16887        30.46533        -1.21158
C         32.89492        32.76411        -1.18097
C         31.78916        33.58984        -1.17871
C         33.16150        35.85307        -0.53390
C         31.97510        35.14611        -1.32827
C         33.05598        37.29252        -0.29141
C         31.97771        38.14094        -1.01222
C         32.84431        40.27770         0.12746
C         31.63656        39.41537        -0.12168
C         32.82543        41.64471         0.14114
C         31.61134        42.42287        -0.22031
C         32.90717        44.54792        -0.35197
C         31.73245        43.85012        -0.57780
C         32.93612        45.99233        -0.50869
C         31.67868        46.70793        -0.64402
C         32.86969        48.85861        -0.47067
C         31.67984        48.15146        -0.47790
C         32.86677        50.34961        -0.68597
C         31.61392        51.05947        -0.24994
C         32.88010        53.13769        -0.37356
C         31.65776        52.43579        -0.21061
C         35.94012        19.20610        -1.63652
C         35.71002        20.43738        -0.89616
C         34.49798        21.12743        -1.00473
C         35.35529        22.82309         0.66198
C         34.29843        22.40202        -0.33925
C         35.30355        24.29142         1.02173
C         34.01931        24.75593         1.14214
C         35.26289        27.34348         1.34975
C         33.89620        26.86862         1.47547
C         35.40018        28.69779         0.99636
C         34.26473        29.36076         0.28035
C         35.42438        31.62094         0.48416
C         34.33148        30.80486        -0.14357
C         35.59576        33.08464         0.27853
C         34.72707        33.87656        -0.46261
C         35.35569        35.88081         0.73106
C         34.36189        35.23286        -0.15005
C         35.23966        37.37139         0.95922
C         34.06856        38.01706         0.32925
C         35.28136        40.22356         0.93107
C         34.00658        39.48192         0.58431
C         35.28629        41.72005         0.82033
C         34.01953        42.45270         0.49375
C         35.31308        44.57081         0.20550
C         34.11615        43.87259         0.06583
C         35.35914        45.99904        -0.06849
C         34.13502        46.67806        -0.40907
C         35.36927        48.85582        -0.17771
C         34.16822        48.14783        -0.74374
C         35.29766        50.28866         0.26282
C         34.11537        51.06502        -0.23844
C         35.42537        53.22708        -0.26494
C         34.11547        52.45453        -0.24434
C         35.42270        54.57852         0.41037
C         38.00143        18.75452        -0.31797
C         37.03617        18.44720        -1.43400
C         38.01221        20.23052         0.02338
C         36.84368        20.96253        -0.14166
C         37.79089        22.90372         1.06604
C         36.74470        22.29979         0.42814
C         37.69266        24.29192         1.59450
C         36.43784        25.07879         1.43004
C         37.73032        27.22392         1.38412
C         36.42825        26.49385         1.49300
C         37.81135        28.70552         1.48726
C         36.63613        29.38976         1.13942
C         37.86804        31.59159         1.20429
C         36.56813        30.86943         1.12339
C         37.79199        33.05919         1.39817
C         36.67202        33.73794         0.98523
C         37.68860        35.95972         1.74989
C         36.74484        35.23017         0.75349
C         37.78980        37.37853         1.24025
C         36.51746        38.12770         1.12783
C         37.82720        40.21871         1.04629
C         36.57192        39.49000         0.95440
C         37.84683        41.67019         0.73382
C         36.56493        42.40978         0.49668
C         37.75947        44.56443         0.64253
C         36.56363        43.88913         0.50763
C         37.73378        46.06588         0.75578
C         36.54634        46.71177         0.08356
C         37.80551        48.87418         0.14852
C         36.55361        48.15865         0.00559
C         37.83280        50.26873         0.15103
C         36.60748        51.02610         0.12806
C         37.87719        53.10204         0.33597
C         36.63117        52.40678         0.14335
C         37.87896        54.48068         0.95998
C         36.54606        55.18189         0.82342
C         40.69080        16.09414        -0.63665
C         39.49100        16.71957        -0.75497
C         40.58446        18.87553         0.05229
C         39.38137        18.17065        -0.55982
C         40.37082        20.14776         0.76960
C         39.15911        20.79200         0.71204
C         40.33837        22.89746         1.36716
C         39.03489        22.11664         1.43336
C         40.28753        24.31341         1.57216
C         38.99403        25.00486         1.79415
C         40.20849        27.20746         2.04106
C         39.01452        26.48410         1.55020
C         40.25472        28.64637         2.05829
C         39.07755        29.35817         1.73789
C         40.32938        31.64716         1.84484
C         39.12297        30.83762         1.51792
C         40.32187        33.00779         1.73203
C         39.03830        33.75484         1.79711
C         40.34108        35.99779         1.79257
C         39.05015        35.24679         1.90547
C         40.33295        37.41278         1.76232
C         39.08656        38.12226         1.36571
C         40.23281        40.35023         1.66034
C         39.01462        39.58452         1.32494
C         40.24614        41.80495         1.36205
C         39.05045        42.46621         1.02718
C         40.22596        44.61527         1.06210
C         39.01463        43.87733         0.89404
C         40.22288        46.05170         0.75652
C         39.06575        46.70533         0.45295
C         40.33584        48.86791         0.07171
C         39.06457        48.08924        -0.14740
C         40.29156        50.29412        -0.05954
C         39.08825        50.98941         0.03884
C         40.33825        53.16705         0.19396
C         39.07987        52.42632         0.19260
C         40.31385        54.63081         0.29855
C         39.11047        55.29207         0.60006
C         40.21983        57.47207         0.60746
C         39.11279        56.71283         0.81205
C         43.07249        15.99829         0.06438
C         41.85453        16.76180        -0.10504
C         42.89042        18.70138         1.04607
C         41.78004        18.07581         0.35371
C         42.83710        20.02697         1.43563
C         41.50303        20.72174         1.60743
C         42.80974        22.95296         1.50806
C         41.55843        22.23397         1.44572
C         42.79757        24.48034         1.40476
C         41.43922        25.03431         1.86172
C         43.14263        27.40931         2.39336
C         41.25083        26.35063         2.39490
C         42.91261        28.76644         2.07727
C         41.56065        29.39735         2.29820
C         42.84303        31.61211         1.86716
C         41.57343        30.90014         2.15151
C         42.82290        33.09791         1.99475
C         41.58783        33.80929         1.48557
C         42.79236        36.02778         1.79529
C         41.56893        35.30155         1.80752
C         42.78463        37.45159         1.83637
C         41.54225        38.12951         1.83562
C         42.83043        40.37792         2.03636
C         41.50413        39.61004         1.96853
C         42.72961        41.68889         1.23743
C         41.45680        42.51529         1.42354
C         42.75680        44.63503         1.54483
C         41.43452        43.92401         1.29743
C         42.74328        46.13413         1.27118
C         41.49641        46.81823         0.83200
C         42.76591        48.96634         0.45897
C         41.53192        48.21059         0.32684
C         42.76746        50.32204         0.24351
C         41.56895        51.02475        -0.36255
C         42.77419        53.27457        -0.17545
C         41.51830        52.50930        -0.03184
C         42.78855        54.74018         0.03402
C         41.52770        55.37685         0.15366
C         42.72916        57.50986         0.63892
C         41.48541        56.88077         0.06891
C         44.14287        16.51848         0.70556
C         45.40537        18.59522         1.64161
C         44.09470        17.87042         1.28464
C         45.39366        20.09621         1.71310
C         44.05036        20.80597         1.77222
C         45.29065        22.98975         1.39051
C         44.02254        22.27977         1.55973
C         45.30558        24.40533         1.42701
C         44.09337        25.09562         2.04425
C         45.28037        27.31558         1.36936
C         44.16326        26.61440         1.89029
C         45.25175        28.75170         1.35904
C         44.03850        29.48043         1.62785
C         45.23614        31.70320         1.30868
C         43.99800        30.93840         1.59086
C         45.34480        33.13060         1.66137
C         44.10722        33.86503         1.95228
C         45.26905        36.01130         1.65157
C         44.08494        35.33781         1.74240
C         45.36619        37.51449         1.73292
C         44.02108        38.21207         1.65774
C         45.23264        40.27994         1.03649
C         44.03053        39.57977         1.53944
C         45.18422        41.69171         0.78115
C         44.03821        42.49395         1.34520
C         45.11018        44.59817         0.41008
C         43.82125        43.87041         0.69860
C         44.91432        46.06692        -0.01338
C         44.12862        46.76998         1.12127
C         45.26961        48.94241         0.51752
C         44.01043        48.32629         1.07433
C         45.22536        50.40584         0.09562
C         43.98946        51.13500         0.60837
C         45.34565        53.26256         0.19386
C         44.05386        52.52170         0.00523
C         45.32480        54.77772         0.28289
C         43.99916        55.44477         0.28035
C         43.90115        56.82614         0.68636
C         47.75952        18.67916         0.96216
C         46.68761        17.94789         1.34749
C         47.69304        20.11464         0.79764
C         46.55361        20.82868         1.14453
C         47.60901        23.00405         0.56857
C         46.47906        22.27326         1.02928
C         47.59755        24.40962         0.57174
C         46.44402        25.12920         0.99538
C         47.59851        27.32274         0.62533
C         46.44982        26.59376         0.96868
C         47.63563        28.73241         0.82747
C         46.47775        29.44228         1.14496
C         47.78027        31.65626         1.38132
C         46.50389        30.92846         1.12543
C         47.78151        33.13597         1.33523
C         46.57545        33.81668         1.54650
C         47.84566        36.08138         1.47200
C         46.57321        35.29904         1.71946
C         47.79187        37.47534         0.95744
C         46.39870        38.06020         0.73022
C         47.51486        40.21594        -0.06878
C         46.38332        39.56765         0.69104
C         47.50644        41.71943         0.03083
C         46.33781        42.41270         0.35220
C         47.45030        44.61007        -0.29849
C         46.26511        43.88740         0.24914
C         47.53855        46.06101         0.13194
C         46.25952        46.79928        -0.43158
C         47.62077        48.93872        -0.23903
C         46.35081        48.24645         0.10385
C         47.70804        50.46599        -0.05920
C         46.50478        51.11794         0.37142
C         47.82797        53.24168         0.64385
C         46.51180        52.52762         0.86583
C         47.74750        54.66460         0.86076
C         46.57216        55.37122         0.82205
C         50.20987        20.19329         0.31395
C         48.86002        20.79111         0.18592
C         50.05797        23.02152        -0.18540
C         48.79394        22.29803         0.02119
C         50.06185        24.42111        -0.17646
C         48.75555        25.13252        -0.01599
C         50.01208        27.40395        -0.39071
C         48.73844        26.63258        -0.02477
C         50.15828        28.73127         0.32168
C         48.95177        29.41571         0.84898
C         50.16783        31.63689         0.49368
C         49.03715        30.88530         1.12690
C         50.17056        33.12865         0.56738
C         49.14481        33.79704         1.49071
C         50.34023        36.04277         0.79684
C         49.14371        35.33121         1.34275
C         50.23178        37.47615         0.39553
C         48.93214        38.13701         0.47928
C         50.05177        40.23038        -0.18665
C         48.88020        39.54669         0.11650
C         50.05696        41.71314        -0.32791
C         48.76303        42.45342        -0.23154
C         49.93745        44.62374        -1.01991
C         48.66622        43.86186        -0.72848
C         50.01209        46.08018        -0.65702
C         48.80937        46.79146        -0.19293
C         50.14077        48.87342        -0.09033
C         48.88011        48.17342        -0.12589
C         50.18466        50.32076         0.11135
C         49.01613        51.08886         0.19682
C         50.31515        53.14605         0.47378
C         49.02505        52.51476         0.46074
C         51.31655        20.85722        -0.04705
C         52.57843        22.96930        -0.38997
C         51.26912        22.23677        -0.66713
C         52.55321        24.46767        -0.23235
C         51.25561        25.15152        -0.33372
C         52.51863        27.31545        -0.75619
C         51.31224        26.62850        -0.07503
C         52.54232        28.79884        -0.43421
C         51.38325        29.50765        -0.03015
C         52.56408        31.65015        -0.22155
C         51.39791        30.90400         0.11166
C         52.59484        33.08440        -0.15287
C         51.43903        33.84367         0.25414
C         52.71679        35.94055        -0.00388
C         51.47079        35.22349         0.28705
C         52.70659        37.45070        -0.00336
C         51.38134        38.15382         0.00643
C         52.47173        40.25962        -0.76188
C         51.32610        39.56130        -0.30252
C         52.39485        41.67620        -1.09760
C         51.24011        42.38253        -0.91668
C         52.49825        44.56219        -0.95582
C         51.20769        43.83953        -1.36634
C         52.51322        45.97073        -0.55869
C         51.31750        46.73280        -0.43347
C         52.60720        48.73563         0.39012
C         51.33163        48.11009        -0.10494
C         52.66788        50.23801         0.24455
C         51.46731        50.98551         0.23780
C         51.46819        52.41347         0.36216
C         55.02728        23.04317        -0.66437
C         53.86809        22.37271        -0.81078
C         55.08246        24.46899        -0.25467
C         53.81973        25.23723        -0.34199
C         55.05135        27.36481        -0.59409
C         53.82461        26.60798        -0.44055
C         54.99089        28.77944        -0.83593
C         53.72837        29.50222        -0.68656
C         54.86252        31.64326        -1.10681
C         53.71543        30.92649        -0.64937
C         54.91262        33.02169        -1.02241
C         53.77741        33.78560        -0.57082
C         54.70320        35.89955        -1.62330
C         53.83280        35.19477        -0.58970
C         54.91359        37.38001        -1.38016
C         53.96734        38.18587        -0.48604
C         54.81200        40.23396        -1.53124
C         53.69427        39.56632        -1.04546
C         54.89615        41.65972        -1.49079
C         53.60632        42.41906        -1.65688
C         54.96643        44.39007        -0.72605
C         53.65287        43.82818        -1.09204
C         55.00602        45.85608        -0.41911
C         53.76102        46.64265        -0.37760
C         55.11231        48.66644         0.14452
C         53.85781        48.00760        -0.04628
C         55.10982        50.06984         0.38090
C         53.94807        50.82935         0.35433
C         57.64699        24.59323        -0.82050
C         56.39597        25.26424        -0.42105
C         57.48981        27.45662        -0.96926
C         56.29917        26.71965        -0.66789
C         57.45970        28.88752        -1.06925
C         56.16094        29.49343        -1.11184
C         57.68651        31.98313        -0.39057
C         55.98476        30.84819        -1.67286
C         57.48362        33.19440        -1.23092
C         56.13235        33.72144        -1.49845
C         57.26229        35.90656        -2.13957
C         56.01414        35.16434        -1.90069
C         57.03116        37.27672        -2.75519
C         55.95372        38.01503        -1.97079
C         57.30789        40.12588        -1.83454
C         55.97342        39.50894        -2.14671
C         57.37372        41.49059        -1.47373
C         56.13807        42.26916        -1.39235
C         57.44309        44.30038        -0.94403
C         56.22993        43.68365        -1.09046
C         57.54398        45.76653        -0.71698
C         56.29213        46.59190        -0.57161
C         57.62115        48.45838         0.29776
C         56.36584        47.95129        -0.00571
C         58.74018        25.31225        -1.16145
C         59.89059        27.49677        -1.36760
C         58.72204        26.76086        -1.16957
C         59.87703        28.89345        -1.24505
C         58.69679        29.62502        -1.08965
C         59.97690        31.84290        -1.38261
C         58.91782        31.09328        -0.60924
C         59.85443        33.12955        -1.77090
C         58.59014        33.86013        -1.72957
C         59.64604        35.99218        -2.62923
C         58.47008        35.24196        -2.19256
C         59.58708        37.28878        -2.97798
C         58.33357        38.12734        -2.98668
C         59.71059        39.98207        -1.86940
C         58.46305        39.37981        -2.11284
C         59.78926        41.32069        -1.48143
C         58.63774        42.10618        -1.33183
C         59.84657        44.12444        -0.33160
C         58.75293        43.61481        -1.25259
C         59.87168        45.40597         0.10464
C         58.77413        46.32217        -0.13338
C         58.78827        47.64190         0.28199
O         53.02577        36.77492         1.25380
O         55.91097        24.80939         0.89553
O         37.30072        41.86407        -0.64143
O         56.96449        46.49879        -1.87365
O         30.23416        44.25687        -2.55206
O         59.45543        30.92334         0.73364
O         25.98037        35.84703        -2.53651
O         49.88245        28.68082         1.74595
O         30.08425        28.60716         0.95564
O         41.52519        30.26029         3.48574
O         26.62213        25.44615         0.69646
O         30.46948        42.23194         0.74991
O         34.76110        29.72274        -1.04908
O         47.35873        35.81448         2.85296
O         33.73923        25.65633         2.15874
O         29.91596        37.72823        -2.41263
O         34.86533        36.39281         1.98724
O         39.00417        34.42929         3.13462
O         43.40720        33.53998         3.24735
O         52.60780        23.53256         0.94895
O         49.66398        42.39391         0.94877
O         55.88712        34.10222        -2.91284
O         27.47868        33.45081        -2.84365
O         44.85002        20.54561         2.98801
O         47.63271        44.19825        -1.69484
O         32.78805        25.45672        -0.95918
O         38.26360        24.49935         2.96813
O         42.23025        26.81212         3.27148
O         50.13729        35.90050         2.25810
O         43.54834        52.73413        -1.33166
O         27.27150        30.89263        -2.59689
O         31.33132        30.90952        -2.22942
O         34.52189        42.33657         1.88838
O         30.05534        35.50306         0.30421
O         48.53065        21.37498        -1.12533
O         56.69020        31.24290        -2.60475
O         27.49091        39.90517         0.65037
O         40.63199        40.04945         3.07399
O         46.30902        46.90690        -1.77588
O         45.80233        31.44557        -0.05191
O         48.62337        31.16095         2.49072
O         38.74937        31.17747         0.10036
O         49.75325        45.62635        -2.06766
O         32.49291        38.55731        -2.20150
O         43.91845        48.70985         2.50071
O         40.25970        18.96885        -1.39456
O         25.28298        28.04298         0.87952
O         35.49334        31.39133         1.95588
O         48.30799        25.87083        -1.22026
O         34.10289        33.33675        -1.57995
O         27.42196        48.68596        -2.36625
O         55.03376        44.86623         0.67758
O         29.69671        24.29455         0.84102
O         37.28320        35.31026        -0.58909
O         34.37794        39.77514         1.98165
O         49.61949        32.47506        -0.61660
O         47.61606        49.78622        -1.41058
O         38.54540        26.79024         0.19870
O         45.67312        54.03204        -0.96456
O         44.60990        17.94423         2.65757
O         51.49981        26.72408         1.35965
H         52.24496        26.14102         1.62031
O         27.70886        44.61559        -3.09011
H         28.56633        44.87156        -3.50525
O         42.63333        41.19248        -0.12568
H         42.68500        41.97993        -0.72474
O         32.33837        28.15107        -1.81404
H         31.91404        28.44883        -2.64730
O         42.87367        24.83437        -0.00275
H         42.11888        24.41900        -0.47039
O         53.88789        35.82446        -2.83112
H         54.28652        35.11533        -3.39184
O         32.48409        23.47450        -2.77344
H         32.68515        24.40329        -2.49809
O         41.50843        57.21391        -1.37971
H         42.31592        56.79932        -1.75415
O         47.47335        46.09459         1.57161
H         46.52971        46.04367         1.88754
O         32.35595        29.66982         1.54411
H         31.50542        29.28692         1.87394
O         47.20463        39.91969        -1.51415
H         46.44140        40.48340        -1.77104
O         30.46535        50.08466         1.57850
H         29.68495        49.56474         1.86411
O         34.35775        48.20273        -2.21125
H         33.94537        49.04804        -2.52584
O         41.17562        20.46746         3.00646
H         40.28773        20.87422         3.18817
O         45.00008        50.34298        -1.34477
H         45.82585        49.99656        -1.76930
O         51.18729        43.75701        -2.82566
H         50.78537        44.60144        -3.14934
O         37.09110        36.04173         3.04332
H         37.42023        35.27760         3.57371
O         58.25299        38.67652        -4.33205
H         57.48112        39.30053        -4.33343
O         43.99580        51.34404         2.02986
H         43.99878        50.45576         2.47054
O         41.71163        50.90586        -1.81785
H         42.56454        51.35335        -2.05169
O         51.13486        22.08541        -2.10585
H         50.23428        21.71305        -2.26168
O         38.01497        54.23440         2.40665
H         37.25998        53.67126         2.68082
O         44.08397        46.08313        -1.18642
H         44.73113        46.37265        -1.91266
O         32.87739        50.48848        -2.19218
H         33.03191        51.44069        -2.38484
O         35.62448        53.50656        -1.69465
H         36.47399        53.98779        -1.78987
O         55.79994        39.70614        -3.60361
H         55.06475        39.12482        -3.89750
O         38.82489        21.81409         2.86217
H         38.71506        22.69059         3.31291
O         49.59615        33.51677         2.83251
H         49.18305        34.17003         3.43744
O         24.97679        32.88315        -3.04252
H         25.81797        32.73575        -3.53733
O         32.18788        35.42211        -2.71573
H         33.06605        35.07269        -2.97460
O         34.95680        22.12831         1.90102
H         35.62763        22.32834         2.58912
O         26.53336        42.15296        -2.76132
H         27.03070        42.88606        -3.20936
O         31.25243        38.85576         1.15654
H         31.16322        39.58672         1.80490
O         52.41911        27.18900        -2.19645
H         51.54998        27.58169        -2.46308
O         31.09852        26.21972         2.17503
H         30.37252        25.55300         2.11230
O         35.07669        50.18941         1.73453
H         35.77316        49.59876         2.09591
O         37.51186        18.05892         0.87370
H         36.63225        18.42961         1.09880
O         59.14267        44.03703        -2.60218
H         58.93885        44.99340        -2.68698
O         29.36559        28.83001        -2.60802
H         28.71627        29.35275        -3.13375
O         45.87372        37.87209         3.04493
H         45.49676        37.26256         3.71263
O         44.51269        42.69447         2.68794
H         44.21597        41.93496         3.25101
O         45.99778        37.60074        -0.59461
H         46.46351        38.17598        -1.25228
O         56.46367        36.97261        -4.05630
H         57.14357        37.23185        -4.72516
O         54.76473        38.48222         0.70124
H         54.47160        37.85461         1.40668
O         52.55760        48.51819         1.85931
H         53.41343        48.83007         2.22519
O         29.53424        41.82058        -2.84169
H         30.14572        42.47034        -3.26096
O         46.26145        52.59492         2.30562
H         46.96114        52.08318         2.76201
O         39.01125        47.84919        -1.60095
H         39.18477        48.70433        -2.05078
O         38.63161        37.53278         0.04710
H         37.70746        36.18675        -0.73889
O         43.00487        44.51272         2.95780
H         42.51860        45.24986         3.38934
O         49.91147        27.71973        -1.79656
H         49.35224        27.01243        -2.20443
O         44.11312        24.76968         3.44555
H         43.43601        25.32600         3.89366
O         56.97272        31.76694         0.59140
H         58.67879        30.91032         1.34108
O         43.08720        40.62385         3.43910
H         42.20665        40.68115         3.88381
O         37.51776        46.35858         2.19503
H         38.21568        45.88593         2.69811
O         44.88104        46.43581         2.30909
H         44.74185        47.16525         2.96116
O         43.21561        43.66994        -0.61031
H         43.39925        44.49354        -1.14441
O         53.48978        42.50050        -3.10442
H         52.63330        42.95543        -3.31356
O         41.95498        46.83529         2.30236
H         43.04696        48.33768         2.79861
O         41.75427        33.76087         0.02753
H         40.92199        34.05767        -0.39836
H         22.09131        26.79525        -1.29519
H         22.06931        29.23693        -1.10256
H         22.04543        31.15745        -0.53118
H         22.08391        33.57817        -0.48321
H         22.19001        35.39886        -0.07834
H         22.22976        37.79236         0.17615
H         22.14490        39.76052         0.05287
H         22.19131        42.18994         0.07286
H         22.23205        44.07150        -0.03425
H         22.25524        46.52877        -0.07930
H         25.44412        23.44416        -1.64899
H         23.35674        24.70467        -1.63885
H         25.37669        49.94506        -0.99067
H         23.36803        48.64007        -0.40803
H         27.41748        22.72549        -2.08878
H         27.10793        50.96088        -0.87551
H         29.65345        21.78627        -2.37791
H         29.03672        52.03918         0.11227
H         33.37675        19.53656        -2.03749
H         31.37049        20.80717        -2.43372
H         32.85840        54.23468        -0.41907
H         30.75079        53.02456        -0.01191
H         35.22209        18.91561        -2.41625
H         34.47771        55.14340         0.43256
H         37.19072        17.53304        -2.02572
H         36.47022        56.19230         1.25458
H         40.76996        15.01506        -0.83556
H         38.58187        16.14436        -0.98167
H         40.19089        58.55734         0.78387
H         38.19623        57.19413         1.18134
H         43.10548        14.97392        -0.33385
H         42.69766        58.57524         0.91017
H         45.04752        15.91383         0.85422
H         44.80803        57.33892         1.03726
H         48.69817        18.16106         0.72797
H         46.77250        16.85975         1.46772
H         48.67129        55.21651         1.09426
H         46.59361        56.44206         1.07110
H         50.30776        19.20432         0.78352
H         50.38214        54.23588         0.59301
H         52.30115        20.38572         0.08981
H         52.42756        52.94670         0.40114
H         55.97096        22.53806        -0.91619
H         53.86706        21.34770        -1.21010
H         56.06989        50.59289         0.48665
H         54.04774        51.92242         0.40016
H         57.70912        23.49851        -0.75088
H         57.72557        49.48557         0.67483
H         59.68439        24.80442        -1.40727
H         60.84388        26.97356        -1.52866
H         60.84368        29.41454        -1.24625
H         60.94530        31.34325        -1.53327
H         60.71765        33.61056        -2.25183
H         60.61269        35.47370        -2.68763
H         60.49936        37.78340        -3.34243
H         60.64031        39.42543        -2.04961
H         60.78098        41.78308        -1.37776
H         60.70206        43.46708        -0.11630
H         60.72937        45.77315         0.68928
H         59.71970        48.06262         0.68869
