         621
 CSIRO Nanostructure Databank - Neutral Graphene Oxide Data Set
C          5.76257        31.76243         0.98950
C          5.78867        33.10721         0.94511
C          8.33239        27.31451         0.92738
C          8.26437        28.77502         1.29131
C          7.05692        29.54885         0.85026
C          8.16691        31.70162         1.63713
C          7.07113        31.04590         0.72862
C          8.21327        33.20608         1.35981
C          7.06578        33.83862         0.86428
C          8.31737        35.85009         0.10590
C          7.11205        35.14998         0.30414
C          8.41566        37.15578        -0.42048
C         10.89696        23.12808         0.27597
C         10.83219        24.53621         0.39856
C          9.62571        25.22765         0.62119
C         10.79696        27.40845         0.76715
C          9.54216        26.65139         0.83216
C         10.87751        28.82877         1.07245
C          9.57019        29.52264         1.03691
C         10.69425        31.42554         2.13469
C          9.50643        30.98608         1.41940
C         10.69883        33.49822         2.05316
C          9.41739        34.03047         1.54439
C         10.87487        35.71040         0.25746
C          9.52448        35.31019         0.77279
C         10.91660        37.09528        -0.31835
C          9.64939        37.86652        -0.45136
C         10.97158        39.95741        -0.68416
C          9.72789        39.23127        -0.70477
C         10.97263        41.35725        -0.85165
C         13.39015        18.90262        -0.17806
C         13.41296        20.33800        -0.14875
C         12.18463        21.07607        -0.13711
C         13.36629        23.26739        -0.08506
C         12.12103        22.46686         0.02537
C         13.33221        24.72248         0.20821
C         12.07170        25.30409         0.26085
C         13.66957        27.74495         0.68396
C         11.86761        26.73067         0.21975
C         13.39570        28.98430         1.37408
C         12.05427        29.57015         1.33123
C         13.11690        31.66651         2.42191
C         11.94477        30.88767         1.94422
C         13.15989        33.21144         2.22727
C         11.95014        33.87916         1.68637
C         13.19982        35.96524         1.32623
C         12.17930        34.98582         0.68683
C         13.38893        37.19976         0.44426
C         12.22907        37.82310        -0.28742
C         13.41011        40.03605        -0.27489
C         12.20659        39.29306        -0.43276
C         13.41605        41.43906        -0.56019
C         12.17429        42.10307        -0.81806
C         13.35691        44.27343        -0.98368
C         12.17344        43.51297        -0.93845
C         13.19652        45.70703        -0.91512
C         15.77064        14.58879         0.28750
C         15.58539        15.94616         0.55409
C         14.46553        16.70134         0.09434
C         15.85299        18.77703         0.20715
C         14.52500        18.11441         0.04464
C         15.88810        20.29051         0.24551
C         14.62888        21.02176         0.04388
C         15.95558        23.17235         0.33014
C         14.68188        22.48171        -0.06784
C         15.91687        24.67873         0.52065
C         14.67155        25.53391         0.15266
C         15.67288        27.28208         1.92460
C         14.61642        26.81680         1.00128
C         15.64935        28.75698         2.36664
C         14.45070        29.55428         2.06452
C         15.73049        31.72838         2.53301
C         14.41678        30.94300         2.54156
C         15.70077        33.17119         2.19513
C         14.48873        33.86538         2.00738
C         15.74049        35.93304         1.57756
C         14.52220        35.24229         1.61834
C         15.72954        37.41628         1.40853
C         14.51181        38.09150         0.85043
C         15.81762        40.14566         0.25520
C         14.59654        39.43016         0.22929
C         15.85352        41.50551        -0.20215
C         14.63106        42.18103        -0.55202
C         15.90457        44.23926        -0.93027
C         14.63022        43.57195        -0.89511
C         16.04203        45.56718        -1.39192
C         14.17135        46.61321        -1.35019
C         15.74200        48.55544        -1.17581
C         14.44212        47.94621        -1.01825
C         15.77223        49.96132        -1.25451
C         18.27357        10.68099        -1.50397
C         18.28784        11.85143        -0.78613
C         16.96407        12.55236        -0.54873
C         18.41388        14.32171         0.75674
C         17.00484        13.77386         0.37904
C         18.53785        15.67312         1.31131
C         16.61803        16.72498         1.21979
C         18.16684        18.66629         1.41711
C         16.90432        18.01884         0.92234
C         18.16816        20.17379         1.41447
C         17.01522        20.97512         0.91127
C         18.18008        23.06492         1.47065
C         17.03654        22.36136         0.96591
C         18.16146        24.46402         1.59119
C         17.01321        25.25581         1.32841
C         18.14706        27.33095         2.00189
C         16.98193        26.61619         1.78448
C         18.22490        28.74381         2.38290
C         16.93222        29.51398         2.60832
C         18.21110        31.65240         2.28720
C         16.99395        30.97506         2.37159
C         18.20217        33.10929         2.12740
C         16.96045        33.82561         1.99953
C         18.24601        35.91062         1.67084
C         16.98616        35.23713         1.76020
C         18.29292        37.38331         1.48926
C         17.02231        38.16820         1.32416
C         18.26200        40.12216         0.38918
C         17.03406        39.49969         0.65433
C         18.31561        41.48980        -0.00868
C         17.09558        42.19498        -0.21478
C         18.32597        44.33361        -0.47408
C         17.11315        43.59438        -0.52335
C         18.32008        45.74999        -0.63621
C         17.11618        46.41215        -1.03276
C         18.20399        48.59831        -0.83507
C         17.00953        47.84638        -1.08428
C         18.17373        50.01825        -0.84423
C         16.97155        50.70363        -1.17362
C         18.17928        52.85494        -1.41281
C         17.00478        52.10054        -1.47049
C         18.24363        54.17807        -1.88328
C         20.43169         7.41311        -4.59140
C         20.48703         8.47425        -3.67986
C         19.35996         9.05052        -3.05594
C         20.69736        10.73343        -1.85243
C         19.47015        10.11827        -2.10844
C         20.81414        11.73214        -0.72934
C         19.54274        12.53444        -0.52878
C         20.75931        14.71162        -0.21105
C         19.59815        13.76445         0.07024
C         20.89735        15.84973         0.81547
C         19.57488        16.54854         1.07528
C         20.69097        18.73513         1.25846
C         19.50660        17.97816         1.30343
C         20.67039        20.17574         1.48120
C         19.46764        20.86090         1.50086
C         20.68275        22.99849         2.14009
C         19.38442        22.28928         1.84909
C         20.69703        24.49297         2.10894
C         19.39369        25.20107         1.95487
C         20.66918        27.40110         1.56277
C         19.38768        26.65122         1.61326
C         20.66837        28.83311         1.91034
C         19.47625        29.50376         2.13606
C         20.71622        31.62902         2.32850
C         19.47177        30.93564         2.27325
C         20.67689        33.09822         2.41642
C         19.42126        33.80771         2.07350
C         20.75251        35.90001         1.64591
C         19.46050        35.21031         1.80389
C         20.74595        37.29134         1.16980
C         19.56044        37.97372         1.00964
C         20.79800        40.00334         0.02268
C         19.49544        39.30202         0.36311
C         20.78103        41.47757        -0.15557
C         19.58057        42.18318        -0.17883
C         20.75576        44.38724        -0.19626
C         19.57830        43.64205        -0.28628
C         20.77780        45.83262        -0.26796
C         19.52030        46.52057        -0.51581
C         20.71041        48.69501        -0.58646
C         19.45457        47.91407        -0.61423
C         20.63640        50.12924        -0.16215
C         19.33623        50.82056        -0.43277
C         20.67479        53.03047        -0.79485
C         19.37663        52.30235        -0.74190
C         20.66063        54.31004        -1.28247
C         19.43471        54.92299        -1.79954
C         20.57102        57.05592        -2.34776
C         19.40968        56.26212        -2.23480
C         20.54732        58.23651        -3.09394
C         22.56802         5.56336        -7.07003
C         21.46700         5.94210        -6.29878
C         22.86276         7.54849        -5.11350
C         21.58769         6.95244        -5.30828
C         23.05012         8.54228        -4.05177
C         21.81929         9.01238        -3.31701
C         23.17460        11.03617        -2.54227
C         21.85728        10.35870        -2.67617
C         23.33120        12.10605        -1.51124
C         22.10941        12.56894        -0.73954
C         23.21808        14.79047        -0.57952
C         22.08679        14.01605        -0.43985
C         23.11919        16.25393        -0.32721
C         21.99216        16.80383         0.43509
C         23.18651        18.93154         0.77351
C         21.95898        18.13076         0.83048
C         23.17841        20.28586         1.31046
C         21.93618        20.90182         1.61986
C         23.16110        23.00684         2.03775
C         21.94996        22.28083         1.91027
C         23.13851        24.46291         1.91981
C         21.96381        25.16764         1.76044
C         23.23393        27.35928         1.45546
C         21.94629        26.61744         1.44992
C         23.22447        28.71347         2.10519
C         21.94280        29.48746         2.26664
C         23.21950        31.67392         2.38787
C         21.96573        30.96613         2.38174
C         23.26126        33.07039         2.21402
C         21.99785        33.84142         2.31433
C         23.26059        35.98197         1.90195
C         21.95058        35.23842         1.83713
C         23.22415        37.28361         1.15375
C         22.02119        37.96655         0.90592
C         23.28580        40.00918         0.23292
C         22.02800        39.30794         0.42476
C         23.34529        41.50010        -0.14302
C         22.04669        42.19701        -0.38053
C         23.28781        44.40043         0.11415
C         22.05339        43.70738        -0.30133
C         23.24547        45.89312         0.35290
C         21.97676        46.52751        -0.17090
C         23.25166        48.72711        -0.03653
C         22.02209        47.97439        -0.41446
C         23.19770        50.19116         0.15550
C         21.88062        50.92512         0.08384
C         23.22312        53.07645        -0.47178
C         21.88507        52.48466         0.01911
C         23.18308        54.51396        -0.88924
C         21.81982        55.23135        -0.98389
C         23.09238        57.03258        -2.52045
C         21.84936        56.51869        -1.83533
C         22.96904        58.11994        -3.50504
C         21.73509        58.79828        -3.66389
C         22.82761        60.37227        -5.17898
C         21.68314        59.93341        -4.51420
C         23.80479         6.18447        -6.91064
C         25.21594         7.88308        -5.77636
C         23.97482         7.20596        -5.93482
C         25.37388         8.97993        -4.88379
C         24.27587         9.36731        -4.05203
C         25.58111        11.23481        -3.17008
C         24.38777        10.48987        -3.21567
C         25.69011        12.40222        -2.27289
C         24.47638        13.01242        -1.68625
C         25.67058        15.12025        -1.21098
C         24.47136        14.27636        -1.12968
C         25.66891        16.43683        -0.70965
C         24.38796        17.08444        -0.36512
C         25.64264        19.14808         0.30874
C         24.37753        18.37916         0.32373
C         25.65424        20.50951         0.94719
C         24.38638        21.00461         1.51965
C         25.66717        22.98449         2.55170
C         24.39865        22.32194         2.01050
C         25.56185        24.49795         2.32400
C         24.41855        25.13576         1.90209
C         25.80043        27.30926         1.60795
C         24.50037        26.56479         1.53420
C         25.78748        28.83387         1.61154
C         24.53350        29.42266         2.26815
C         25.79314        31.59431         2.21157
C         24.50509        30.91641         2.45394
C         25.78513        33.05616         2.12127
C         24.49985        33.78635         1.98086
C         25.75948        35.81123         1.26365
C         24.52305        35.14671         1.67626
C         25.73994        37.19822         0.93686
C         24.51258        37.97661         1.13019
C         25.75341        40.17839         0.51951
C         24.51871        39.44870         0.81557
C         25.73101        41.57067         0.48145
C         24.52277        42.27532         0.26812
C         25.70623        44.48304         0.62698
C         24.45966        43.71067         0.34347
C         25.76860        45.90484         0.23712
C         24.49467        46.57054        -0.25166
C         25.70708        48.81087         0.03264
C         24.45854        48.07209        -0.01998
C         25.73152        50.17508        -0.16138
C         24.49011        50.96316        -0.02313
C         25.67013        52.92219        -1.03201
C         24.41334        52.37658        -0.49889
C         25.68366        54.31698        -1.51115
C         24.40607        55.09742        -1.53515
C         25.49079        56.68390        -3.26668
C         24.21143        56.03176        -2.73642
C         25.36909        57.86803        -4.01615
C         24.12946        58.55182        -4.20403
C         24.04000        59.69643        -5.03647
C         26.57266         9.73392        -4.82518
C         27.86627        11.69323        -4.03683
C         26.69687        10.86061        -3.98423
C         27.97845        12.89437        -3.33029
C         26.93579        13.24817        -2.33936
C         27.98505        15.45478        -1.98655
C         26.85550        14.63277        -1.83532
C         28.03524        16.70837        -1.31324
C         26.87227        17.19441        -0.64999
C         28.14540        19.13320         0.20969
C         26.92314        18.46823        -0.00157
C         28.12227        20.37436         1.00823
C         26.94739        21.11348         1.35139
C         28.31073        22.90871         2.33311
C         27.00820        22.33716         2.06366
C         28.54021        24.21624         2.91537
C         26.65592        25.34583         2.71277
C         28.26228        27.25637         2.22881
C         26.91064        26.62034         2.28733
C         28.28333        28.74366         2.26658
C         27.04459        29.45166         2.20163
C         28.27806        31.51601         1.86468
C         26.99188        30.87711         2.26601
C         28.25807        32.88240         1.28683
C         27.06787        33.73753         1.62579
C         28.19036        35.66576         0.49696
C         26.96036        35.08094         1.08749
C         28.16521        37.12049         0.12561
C         26.87619        37.86134         0.30369
C         28.25551        40.07009         0.28245
C         26.96231        39.40058         0.25264
C         28.21628        41.55464         0.24881
C         27.02810        42.23278         0.89266
C         28.28357        44.48291         0.54024
C         27.02298        43.75428         0.81743
C         28.25169        45.88768         0.41352
C         26.97115        46.57931         0.30737
C         28.30857        48.78554         0.01073
C         26.96145        48.05883         0.29799
C         28.21601        50.11817        -0.54987
C         27.02392        50.96987        -0.19628
C         27.99038        52.65787        -1.86530
C         26.86210        52.21231        -1.05392
C         27.89555        53.81302        -2.65076
C         26.86360        54.79249        -2.39513
C         26.67801        55.96447        -3.24872
C         29.04947        13.79720        -3.50569
C         30.18370        15.91734        -2.97680
C         29.10467        15.03296        -2.81354
C         30.27245        17.14299        -2.26435
C         29.20989        17.51322        -1.34725
C         30.58667        19.35735        -0.58515
C         29.32514        18.64821        -0.50413
C         30.99786        20.24524         0.41103
C         29.31737        20.90358         1.51950
C         30.86643        22.82958         2.00443
C         29.48747        22.23438         1.91598
C         30.90251        24.32066         2.41750
C         29.63824        25.01159         2.68465
C         30.80914        27.29322         2.61243
C         29.56786        26.49376         2.43915
C         30.77259        28.68277         2.50633
C         29.53294        29.39296         2.33895
C         30.82188        31.56039         1.89537
C         29.55239        30.90554         2.41143
C         30.80175        32.91837         1.47605
C         29.56761        33.53870         0.84652
C         30.67140        35.75482         0.78070
C         29.50767        35.05059         0.83037
C         30.73898        37.16182         0.31294
C         29.45452        37.89575        -0.00493
C         30.71110        40.05568         0.18756
C         29.47089        39.37789         0.15172
C         30.74817        41.51988         0.56559
C         29.49535        42.30162         0.23708
C         30.72905        44.45813         0.26437
C         29.51465        43.77611         0.45103
C         30.71014        45.84624         0.00786
C         29.47932        46.57362         0.09326
C         30.61343        48.54607        -0.88286
C         29.47841        47.94835        -0.25345
C         30.49078        49.83993        -1.43470
C         29.28486        50.59992        -1.33430
C         29.15691        51.86015        -1.97577
C         31.35230        18.01721        -2.48191
C         32.65781        20.00767        -1.74668
C         31.52738        19.15584        -1.65917
C         32.85566        21.09006        -0.85888
C         31.94533        21.27498         0.23955
C         33.10856        23.28303         0.95764
C         32.00032        22.42350         1.10256
C         33.21052        24.55313         1.66135
C         32.10322        25.14223         2.21935
C         33.39113        27.28010         2.89853
C         32.08287        26.53270         2.76828
C         33.35435        28.79801         2.82456
C         32.03094        29.49746         2.62616
C         33.27309        31.59641         1.86935
C         32.04270        30.90611         2.10855
C         33.25024        32.98927         1.55100
C         31.99865        33.63628         1.37539
C         33.22753        35.87199         1.07408
C         31.94151        35.10897         1.20660
C         33.20768        37.27806         0.59550
C         31.98490        37.94745         0.44897
C         33.20251        40.04134         0.04618
C         31.96396        39.34901         0.18863
C         33.20741        41.49526        -0.21650
C         31.95388        42.26160         0.03599
C         33.22805        44.39265        -0.27379
C         32.05623        43.73096         0.42010
C         33.12770        45.73981        -0.61666
C         31.91167        46.49125        -0.48598
C         31.82771        47.80177        -0.96397
C         33.98765        21.95096        -0.92098
C         35.34601        23.79896        -0.04541
C         34.14880        22.97745         0.00243
C         35.59878        24.79897         0.84247
C         34.54411        25.17598         1.80464
C         35.89662        27.27642         2.29442
C         34.66346        26.54926         2.52855
C         35.88562        28.73280         2.20429
C         34.62785        29.52850         2.45369
C         35.70708        31.58978         1.54068
C         34.54296        30.92149         1.92230
C         35.70927        32.99743         1.26743
C         34.48087        33.71211         1.31757
C         35.67952        35.75983         0.67182
C         34.48776        35.10279         1.01610
C         35.64760        37.16171         0.20525
C         34.41729        37.95297         0.34516
C         35.69616        40.07825        -0.01265
C         34.42636        39.34882         0.08321
C         35.67345        41.51304        -0.13575
C         34.48889        42.24013        -0.22813
C         34.42675        43.65019        -0.40532
C         36.86412        25.62376         0.70634
C         38.37260        27.34439         1.76669
C         37.15292        26.49646         1.99409
C         38.33293        28.68834         1.51948
C         37.01296        29.37059         1.45394
C         38.22313        31.58586         1.11809
C         36.95413        30.84532         1.23922
C         38.19437        32.97082         0.99989
C         36.93293        33.68459         0.98603
C         38.17224        35.81408         0.58521
C         36.92163        35.07154         0.70997
C         38.18540        37.19091         0.41769
C         36.97189        37.93334         0.07230
C         36.89928        39.39804         0.10620
C         39.51184        29.48155         1.31221
C         40.69165        31.62308         1.00962
C         39.47003        30.86198         1.13725
C         40.67287        32.98027         0.89412
C         39.43007        33.71400         0.87135
C         39.40505        35.08944         0.71628
O         32.54312        35.77468         2.38589
O         35.63950        29.41193         3.51493
O         15.09180        31.26415         3.78221
O         24.08129        55.45817        -0.16972
O         10.86845        35.90795        -1.18623
O         30.26057        37.35966        -1.07987
O         16.31451        19.51942        -0.96424
O         27.50654        24.78148         3.66044
O         32.74981        26.71827         4.07090
O         24.51378        39.03251         2.21878
O         17.70523        29.03318         3.73554
O         23.56894        40.45745        -1.13890
O         19.87206        22.49058         3.23602
O         21.07937        50.39226         1.20461
O         16.48345        24.05637        -0.69884
O         15.09368        46.05640        -2.27368
O         12.84568        27.49608        -0.41288
O         23.92639        50.70656         1.31242
O         22.72902        57.49706        -1.18576
O         23.16772        11.77767        -0.09043
O         32.29674        41.92794        -1.32029
O         15.33846        27.65355         3.29085
O         12.94613        32.58949         3.52049
O         23.78936        55.17985        -3.77587
O         17.72758        38.16006         2.62021
O         36.69163        29.86751         0.12074
O         19.88091        27.09950         0.31704
O         26.72971        33.68132         3.05908
O         17.63925        13.43488         1.63462
O         13.29686        37.08284        -1.00174
O         26.61922        38.58273        -0.95120
O         30.42308        20.07209         1.67003
O         20.04085        39.26739        -1.00986
O         21.32615        33.65070         3.61582
O         26.74877        55.10370        -0.94225
O         21.55821        48.43499        -1.75670
O         22.58358        27.09839         0.18669
O         19.04255        51.81038         0.60560
O         25.52274        20.38416        -0.51667
O         25.36310        26.74657         0.33201
O         19.99047        25.03907         3.28577
O         23.45232        17.04990        -1.51400
O         26.28281        44.28249         1.97074
O         28.07629        31.71113         0.41184
O         10.50952        32.49352         3.03532
O         22.53026        28.68538         3.39441
O         34.88520        25.27666         3.22920
O         26.77106        12.24783        -1.27349
O         14.11923        22.98601        -1.32389
O         24.67412        29.96905         3.59257
O         22.13302        43.00076        -1.60182
O         32.66525        29.40411         3.95466
O         29.00667        26.71568         1.06703
O         28.03252        36.09272        -0.90245
O          9.68240        30.58485         0.02053
O          9.27697        35.36321         2.21636
O         22.70239         8.04188        -2.68410
O         22.21948        11.47926        -3.60195
O         14.75636        38.08776         2.30419
O         17.45735        16.04905         2.11008
O         36.27845        37.34444        -1.09885
O         28.77231        42.03836        -1.01955
O         31.20789        23.21865         3.35727
O         17.91001        19.39800         2.66477
O         27.74272        48.62662         1.36186
O         12.78574        34.39816        -0.47211
H         12.61353        35.01269        -1.22751
O         25.73670        29.28136         0.23334
H         25.67900        28.47777        -0.33786
O         21.52300        55.69456         0.35614
H         22.30886        56.21182         0.64674
O         32.37617        43.79532         1.83954
H         31.78060        43.16331         2.30950
O         23.36926        36.39141         3.31738
H         23.15976        35.60821         3.87205
O         37.48873        25.57201         3.04283
H         36.64404        25.24044         3.43942
O         23.31574        46.13994         1.78218
H         22.52642        45.75078         2.21208
O         20.38513        15.37051        -1.45931
H         20.62498        14.79239        -2.21332
O         21.28771        15.21339         2.06595
H         21.22959        15.87702         2.78497
O         21.70936        52.95732         1.35966
H         20.98357        52.42307         1.75731
O          7.34420        31.36954        -0.66957
H          8.21715        30.97241        -0.90778
O         27.21836        41.89951         2.30215
H         26.66631        42.53423         2.81742
O         16.41956        12.93703        -1.82547
H         17.10361        13.42571        -2.32737
O         27.24719        51.43301         1.17158
H         26.38853        51.73270         1.54054
O         36.70773        26.45549        -0.43564
H         37.49868        27.02739        -0.52680
O         25.61423        22.76147         3.98444
H         26.32042        23.31244         4.39365
O         29.51010        31.24680         3.83247
H         30.29127        30.84341         4.26922
O         30.84055        41.56175         2.03293
H         29.99933        41.21894         2.40648
O          8.12955        28.76354         2.77543
H          7.88545        29.68221         3.06904
O         12.62057        36.41931         2.56208
H         13.28017        37.01333         2.99550
O          7.77269        31.49187         3.01774
H          8.40638        31.98893         3.58416
O         24.41884        46.33157        -1.67966
H         25.14397        46.81350        -2.12751
O         14.83764        25.93952        -1.21466
H         15.11165        25.13666        -1.71706
O         29.75788        33.24696        -0.57080
H         29.25130        32.42302        -0.77048
O         20.84866        10.92143         0.48898
H         21.79808        10.74023         0.68581
H          4.82035        31.20109         1.06667
H          4.86288        33.69905         1.00674
H          7.39114        26.74568         0.89318
H          6.08505        29.03013         0.88634
H          6.17569        35.58835        -0.07235
H          7.49729        37.68310        -0.71988
H          9.97637        22.53292         0.36852
H          8.69236        24.64645         0.66867
H          8.80135        39.80088        -0.86950
H         10.02014        41.88029        -1.02154
H         12.41729        18.40354        -0.29956
H         11.24278        20.50709        -0.14528
H         11.20714        44.03359        -1.01184
H         12.26866        46.08716        -0.46202
H         14.99030        14.11651        -0.33249
H         13.55892        16.18391        -0.25215
H         13.64828        48.56506        -0.57399
H         14.82502        50.50456        -1.38541
H         17.30588        10.22684        -1.76548
H         16.23557        11.82274        -0.10910
H         16.09017        52.57358        -1.85809
H         17.34271        54.64792        -2.30489
H         19.45761         6.96040        -4.83028
H         18.36078         8.65074        -3.28419
H         18.45901        56.66556        -2.61652
H         19.57446        58.64772        -3.40506
H         22.45166         4.77456        -7.82643
H         20.49160         5.46158        -6.46055
H         22.77293        61.25754        -5.82765
H         20.73075        60.46700        -4.64322
H         24.65733         5.89232        -7.53989
H         26.06633         7.58623        -6.40799
H         26.28122        58.32370        -4.43531
H         24.93529        60.04785        -5.56869
H         27.41376         9.45323        -5.47582
H         28.66895        11.41148        -4.73478
H         28.64063        54.00261        -3.43675
H         27.49143        56.23154        -3.94245
H         29.86459        13.53639        -4.19712
H         31.00370        15.64245        -3.65699
H         31.34859        50.28228        -1.96095
H         29.99002        52.22944        -2.59025
H         32.09809        17.78083        -3.25473
H         33.40933        19.81429        -2.52566
H         33.99743        46.24515        -1.06504
H         32.71033        48.27245        -1.42099
H         34.75125        21.78914        -1.69575
H         36.09509        23.55817        -0.81469
H         36.63673        42.04528        -0.15705
H         35.35266        44.18763        -0.66482
H         37.74873        24.93880         0.56542
H         39.34263        26.83029         1.83925
H         39.13945        37.73557         0.48564
H         37.83894        39.96616         0.18191
H         40.48820        28.97457         1.33429
H         41.64760        31.07958         1.01955
H         41.61313        33.54319         0.80210
H         40.35166        35.64375         0.63006
