         274
 CSIRO Nanostructure Databank - Neutral Graphene Oxide Data Set
C        -10.84066         0.72802         1.40154
C         -9.98921         1.44149         0.41922
C         -8.84575         0.66626        -0.18366
C         -7.67492         1.39523        -0.80426
C         -6.38507         0.67196        -1.04728
C         -5.23188         1.45591        -1.60569
C         -3.91687         0.71448        -1.82666
C         -2.57645         1.43860        -1.87586
C         -1.27540         0.68301        -1.78588
C          0.06079         1.41307        -1.74766
C          1.31753         0.64916        -1.47817
C          2.63822         1.39246        -1.54423
C          3.90615         0.66796        -1.27212
C          5.18856         1.45161        -1.12035
C          6.47551         0.71014        -1.01316
C          7.75590         1.46569        -0.70326
C          8.99415         0.73287        -0.29202
C         10.18131         1.55375         0.21710
C         11.31409         0.66201         0.67774
C         -9.89783         2.91129         0.45436
C         -8.89125         3.59438        -0.13267
C         -7.74789         2.90155        -0.80196
C         -6.53203         3.77623        -1.09615
C         -5.21224         2.97752        -1.41857
C         -3.85531         3.65203        -1.29771
C         -2.50200         2.98990        -1.76593
C         -1.22949         3.46117        -0.99254
C          0.09776         2.95068        -1.65459
C          1.30515         3.45684        -0.82008
C          2.62715         2.82364        -1.07648
C          3.92173         3.63185        -1.22966
C          5.14101         2.88499        -0.72769
C          6.24323         3.50778        -0.25948
C          7.65527         2.96079        -0.38140
C          8.53433         3.33815         0.81291
C          9.65660         2.60748         1.16775
C         -8.91810         5.11177        -0.14958
C         -7.59750         5.69484         0.38189
C         -6.35374         4.88038        -0.06120
C         -5.03064         5.55680         0.08802
C         -3.77547         4.91385        -0.46506
C         -2.47501         5.63194        -0.36594
C         -1.22209         4.99656        -0.91724
C          0.06199         5.70021        -0.61697
C          1.25928         4.85747        -0.17924
C          2.52728         5.69261        -0.32915
C          3.83039         5.08907        -0.76732
C          5.16004         5.88427        -0.58743
C          6.43849         5.00197        -0.28173
C          7.29954         5.48817         0.88684
C          8.26317         4.59085         1.41496
C         -7.43797         7.15568         0.02462
C         -6.26377         7.80512         0.21122
C         -5.02743         7.01367         0.68306
C         -3.67663         7.85520         0.47273
C         -2.52276         7.12311        -0.21891
C         -1.23062         7.87399        -0.18018
C         -0.01506         7.04446         0.05787
C          1.20528         7.67646         0.64542
C          2.51622         7.03304         0.34672
C          3.68091         7.71202         0.54737
C          4.98317         6.92825         0.54658
C          6.28037         7.76903         0.72272
C          7.27734         6.80139         1.31045
C         -6.20980         9.26328         0.31384
C         -5.05730         9.95367         0.25076
C         -3.81283         9.24927        -0.22894
C         -2.52114        10.10028         0.05492
C         -1.21780         9.30487         0.21823
C         -0.07939         9.88690         0.66178
C          1.14366         9.12236         1.15234
C          2.48612         9.80720         1.08386
C          3.65353         9.09866         1.02723
C          4.89617         9.68303         1.52807
C          6.06473         9.01580         1.54408
C        -10.86744        -0.61068         1.45889
C         -9.99600        -1.50532         0.59211
C         -8.68286        -0.76032         0.24943
C         -7.46099        -1.44062        -0.26530
C         -6.32912        -0.68731        -0.89501
C         -5.14537        -1.52010        -1.27805
C         -3.87811        -0.81420        -1.73183
C         -2.54754        -1.56305        -1.65455
C         -1.22595        -0.81433        -1.55971
C          0.00539        -1.48537        -1.00785
C          1.16097        -0.57667        -0.55617
C          2.49992        -1.30383        -0.27320
C          3.82546        -0.67825        -0.62165
C          5.09400        -1.49293        -0.59727
C          6.41420        -0.78629        -0.79494
C          7.57254        -1.39731        -0.06877
C          8.81652        -0.65603         0.25379
C         10.01126        -1.48520         0.75035
C         11.28561        -0.67800         0.71876
C         -9.78775        -2.81473         1.35400
C         -8.67498        -3.48732         1.54541
C         -7.52277        -2.89533        -0.65526
C         -6.23648        -3.63045        -0.51915
C         -5.09076        -2.95327        -0.81897
C         -3.86768        -3.75355        -1.13266
C         -2.55263        -3.01977        -1.28143
C         -1.35447        -3.67235        -0.62438
C         -0.10889        -2.81690        -0.24989
C          1.22225        -3.58657        -0.35769
C          2.50456        -2.82251        -0.22414
C          3.74144        -3.49620         0.34535
C          5.05032        -2.76905         0.21355
C          6.34283        -3.52074         0.36921
C          7.59657        -2.86364         0.01690
C          8.81530        -3.58163         0.03332
C         10.02780        -2.87700         0.13747
C         -7.68307        -4.28102         1.92369
C         -7.09969        -5.39044         1.10717
C         -6.28868        -5.06722        -0.15976
C         -5.19520        -6.02816        -0.67257
C         -3.88262        -5.26070        -1.07301
C         -2.51871        -6.02522        -1.18170
C         -1.32625        -5.17565        -0.63850
C          0.00526        -5.88701        -0.50695
C          1.24452        -5.09801        -0.18877
C          2.41105        -5.74541         0.53801
C          3.70932        -4.98278         0.68338
C          5.03009        -5.75647         0.65282
C          6.33928        -5.01698         0.50172
C          7.57504        -5.73886         0.09905
C          8.73689        -5.04179        -0.06456
C         -6.77084        -6.62240         1.82756
C         -5.80154        -7.50899         1.35886
C         -4.98286        -7.19631         0.25383
C         -3.72609        -7.96489         0.18247
C         -2.50850        -7.33414        -0.38157
C         -1.26088        -8.17215        -0.43253
C         -0.00107        -7.38238        -0.30862
C          1.10683        -8.00927         0.49295
C          2.43257        -7.26251         0.53728
C          3.72233        -7.98205         0.32184
C          5.02906        -7.22154         0.33729
C          6.21482        -7.86385        -0.38531
C          7.55867        -7.26235         0.08418
C         -5.54237        -8.74894         2.10499
C         -4.63560        -9.66276         1.71482
C         -3.80071        -9.45579         0.46517
C         -2.45410       -10.12874         0.55885
C         -1.27360        -9.54563         0.16266
C         -0.00674       -10.21290         0.24485
C          1.21947        -9.48958         0.19130
C          2.43576       -10.09619        -0.07540
C          3.69155        -9.32239        -0.38814
C          5.00170       -10.04440        -0.14540
C          6.16098        -9.36799        -0.15771
O         -0.46022         5.65540        -1.96129
O         -1.21255         2.89126         0.32710
H         -1.87445         3.39255         0.87615
O          1.93935         2.62866         0.21552
O          3.64274        -8.97863        -1.82060
H          3.43771        -9.79353        -2.32675
O         -4.12647        -4.57864        -2.33515
O         -4.77600        -1.41266        -2.69225
O          2.96080         5.80100        -1.72019
O          0.71919        -0.02423         0.69956
H          1.50935         0.30965         1.18389
O          9.82292        -1.77583         2.16439
H          8.84924        -1.76783         2.33320
O         -0.23205        -1.49999        -2.40862
O          0.93878         9.05914         2.60154
H          0.34143         8.28995         2.76119
O          2.80277        -5.18198         1.81289
O          3.41955         0.86939        -2.63787
O         -1.93865         7.68127        -1.44710
O         -0.35932        -8.05217        -1.55843
O          8.74555         1.00205        -1.69498
O          6.50876        -4.17020         1.68745
O         10.74371         2.31612        -0.87856
H         10.09969         2.27720        -1.62835
O          4.86421         6.10134         1.74647
H          4.52337         6.65975         2.47744
O          4.29340        -2.71032         1.44526
O         -7.58808        -1.06974         1.16456
O         -5.67492        -6.61312        -1.90123
H         -5.69830        -5.89995        -2.57829
O         -1.74582        -4.45164         0.55900
O          0.73813        -7.82174         1.95017
O         -7.67784         5.62260         1.81448
H         -6.81358         5.99505         2.15842
O          7.72648        -0.69090         1.24761
O         -4.78454         1.09755        -2.93786
O         -7.62869        -5.60768        -0.23208
O         -5.52437         4.54241         1.06142
O         -8.09366         2.13751        -2.00327
O         -8.48653        -3.35850        -1.24793
O         -1.89218         0.99299        -3.08001
O         -5.28332         6.90844         2.05189
O         -3.18476         8.14903         1.79727
H         -3.85525         7.73252         2.41623
O          6.01521         1.17812        -2.30717
O          5.27490        -6.75222         1.69770
O          0.79863         0.75349        -2.82835
O         -4.63537         3.72698        -2.52140
O          0.27457         6.88806         1.48203
O          3.25294        -0.58539         0.73479
O          7.34412         5.08050        -1.46154
O          8.11291         3.78425        -1.52215
O         -2.40437        -2.60895        -2.66258
O          1.00784        -5.62920        -1.53518
O        -10.07100         0.86189        -0.93126
O        -10.70708        -1.81727        -0.60937
H        -10.15974        -2.45807        -1.12511
O         -2.90820         4.79836         0.74956
O         -9.20537         5.58822        -1.46384
H         -8.46926         5.30359        -2.05961
O          1.09997         4.62368         1.23219
H          0.42014         3.92436         1.35543
O          3.14858        -7.90814         1.64115
O          5.37889         6.55658        -1.83093
H          5.42709         5.88074        -2.54177
O          7.83780        -7.72120         1.40959
H          7.12185        -7.37919         1.99644
O         -4.51748       -10.03341        -0.66052
H         -4.63533       -10.99156        -0.49524
O          4.14835         3.70057        -2.65869
H          3.42826         4.24929        -3.04516
O         -2.29646        -6.35594        -2.54174
H         -2.66985        -5.63458        -3.09951
O         -2.79875        -7.17414         1.04816
O          6.07853        -7.58044        -1.79283
H          5.26913        -8.05041        -2.11655
O          0.34128         3.48612        -2.94740
H         -0.47831         3.37960        -3.48784
O          2.04953        -3.28321        -1.52802
O          5.82991        -1.59794        -1.84681
O          6.84272         8.26681        -0.51359
H          6.60102         7.65977        -1.25636
O         -0.57916        -8.34225         2.21669
H         -0.41108        -8.96113         2.96821
O         -2.28680         3.49135        -3.09013
H         -3.07416         3.25977        -3.63405
O         -2.72436        10.85345         1.25246
H         -2.86521        10.19233         1.96922
O         -0.27352        -2.45522         1.13050
H         -0.63703        -3.23391         1.61150
O         -4.03850         9.11150        -1.64277
H         -3.21744         8.76671        -2.06540
O         -6.88117         4.47100        -2.31649
H         -7.10385         3.78475        -2.98583
H         12.20920        -1.22548         0.96279
H         12.28134         1.17527         0.79246
H         10.29668         2.97729         1.98411
H          8.90520         4.93276         2.24139
H          8.01613         7.14284         2.05328
H          6.95522         9.47756         1.99692
H          4.81802        10.66364         2.02173
H          2.51824        10.85045         1.43559
H         -0.11435        10.95295         0.93769
H         -2.40058        10.83507        -0.78337
H         -5.03878        11.04425         0.38804
H         -7.15869         9.78165         0.52421
H         -8.34277         7.72113        -0.24804
H         -9.74564         5.46185         0.51419
H        -10.70156         3.46357         0.96574
H        -11.48403         1.32976         2.06102
H        -11.54499        -1.11018         2.16801
H        -10.72806        -3.27770         1.70838
H         -7.19998        -4.10302         2.90208
H         -7.27480        -6.82695         2.78334
H         -6.15783        -8.92814         2.99967
H         -4.51039       -10.59797         2.28214
H         -2.43300       -11.14748         0.97817
H          0.01616       -11.31003         0.33184
H          2.44607       -11.17897        -0.28203
H          4.99053       -11.13432         0.01090
H          7.11235        -9.89892        -0.00179
H          8.37499        -7.63843        -0.58069
H          9.66900        -5.58920        -0.27139
H         10.97071        -3.44431         0.17399
