         615
 CSIRO Nanostructure Databank - Neutral Graphene Oxide Data Set
C         23.09000        69.75975         1.79347
C         23.11186        71.14432         2.06761
C         21.91320        71.90496         2.14646
C         23.17416        73.93751         2.56152
C         21.95686        73.27584         2.39466
C         25.46977        65.53401         0.89025
C         25.47883        66.88889         1.30822
C         24.28054        67.62660         1.40742
C         25.54655        69.66417         1.93782
C         24.28610        69.00784         1.71108
C         25.57991        71.07498         2.20009
C         24.37068        71.81143         2.25551
C         25.64570        73.88848         2.63229
C         24.40198        73.22721         2.49109
C         27.78582        61.31149        -0.40682
C         27.45724        62.43430         0.36125
C         26.50015        63.44674         0.19465
C         27.91416        65.40185         1.04770
C         26.63764        64.75666         0.77990
C         27.95968        66.79111         1.37334
C         26.73683        67.53193         1.57901
C         28.00396        69.57565         2.24572
C         26.74096        68.90537         1.91028
C         28.04784        71.04092         2.29316
C         26.83029        71.75975         2.34394
C         28.12373        73.83666         2.65119
C         26.86233        73.18369         2.54237
C         30.19445        57.10834        -1.13761
C         30.20908        58.48283        -0.77402
C         29.05429        59.29868        -0.83421
C         30.30819        61.21480         0.08161
C         29.03858        60.60380        -0.30557
C         30.40042        62.61619         0.37969
C         29.29436        63.33871         0.86924
C         30.37209        65.47613         0.56841
C         29.17954        64.74791         0.82750
C         30.38333        66.88755         0.81903
C         29.21376        67.47244         1.37399
C         30.50568        69.63828         1.67507
C         29.31098        68.82563         1.93164
C         30.49065        71.00505         1.94266
C         29.29092        71.71037         2.27943
C         30.59300        73.81926         2.55885
C         29.32887        73.14313         2.48791
C         32.52518        52.74360        -1.07104
C         32.51294        54.13535        -1.24440
C         31.32440        54.88023        -1.29603
C         32.55703        56.88333        -0.57570
C         31.35290        56.30007        -1.08925
C         32.44969        58.13977        -0.00266
C         31.41083        59.06126        -0.24850
C         32.80170        61.19371        -0.07120
C         31.53513        60.48409        -0.02240
C         32.80726        62.63287        -0.12333
C         31.60801        63.34645         0.16511
C         32.77733        65.49772        -0.02100
C         31.58931        64.77302         0.25372
C         32.67602        67.00064        -0.21260
C         31.58444        67.63757         0.64318
C         32.89998        69.67039         1.12015
C         31.66643        68.98427         1.08583
C         32.96069        71.00013         1.76765
C         31.71031        71.82352         1.58141
C         33.04440        73.84472         2.28184
C         31.79410        73.18551         2.23570
C         35.02601        48.47835        -0.18556
C         34.95560        49.91119        -0.35644
C         33.75422        50.62637        -0.61784
C         34.98237        52.72765        -1.05162
C         33.74309        52.01849        -0.89779
C         35.06661        54.11951        -1.37979
C         33.79169        54.92828        -1.45275
C         35.12085        56.96596        -0.91228
C         33.88351        56.13680        -0.49308
C         35.26189        58.38315        -0.75416
C         34.28789        59.17355        -0.08092
C         35.21372        61.25487        -0.83053
C         34.07424        60.54155        -0.31640
C         35.21625        62.69968        -0.78179
C         33.99289        63.38440        -0.40107
C         35.18992        65.57509        -0.62275
C         33.95302        64.80544        -0.35824
C         35.27347        66.98408        -0.20465
C         34.02595        67.71943        -0.13715
C         35.43436        69.63939         0.86264
C         34.08710        69.12108         0.49888
C         35.51848        70.99053         1.51814
C         34.26663        71.71376         1.91564
C         35.48555        73.89291         1.88013
C         34.27742        73.20133         1.98854
C         37.68981        44.28530         0.16228
C         37.58804        45.67073        -0.05628
C         36.34913        46.34238        -0.02731
C         37.48678        48.49953         0.14413
C         36.23017        47.76550        -0.08891
C         37.41381        50.05952         0.05982
C         36.16557        50.65966        -0.39229
C         37.41778        52.59510        -1.28157
C         36.19342        52.00372        -0.87293
C         37.59603        54.11411        -1.31529
C         36.25394        54.81710        -1.61124
C         37.18473        57.09307        -2.16961
C         36.16014        56.29267        -1.59172
C         37.46422        58.43515        -1.89184
C         36.37868        59.12269        -1.26370
C         37.57685        61.23590        -1.69527
C         36.36244        60.54242        -1.22607
C         37.62814        62.72160        -1.45838
C         36.40941        63.38158        -0.96324
C         37.76102        65.46319        -0.40442
C         36.46430        64.85121        -0.88697
C         37.76513        66.96475        -0.42109
C         36.54014        67.65420        -0.17554
C         37.84806        69.70391         0.21249
C         36.60595        69.03534         0.17894
C         37.81814        71.18415         0.39166
C         36.65908        71.84073         1.06501
C         37.94225        73.89694         1.50048
C         36.73076        73.25598         1.53713
C         40.22484        40.07026         0.46985
C         40.20296        41.45238         0.16600
C         38.97339        42.19062         0.25134
C         40.14481        44.26368        -0.47351
C         38.90629        43.56383         0.04684
C         40.13869        45.74538        -0.19065
C         38.82481        46.43156        -0.50950
C         39.97332        48.56671         0.04660
C         38.80693        47.86816        -0.05471
C         39.95447        50.04733         0.01387
C         38.65718        50.66743        -0.36472
C         40.42665        52.77701        -1.27190
C         38.52601        51.71829        -1.25960
C         40.20881        54.18859        -1.38166
C         38.95669        54.68650        -1.83921
C         40.14743        56.86423        -2.13790
C         39.05634        55.99262        -2.32969
C         40.02799        58.33441        -2.41952
C         38.75085        59.10134        -2.16126
C         40.07885        61.22059        -1.98609
C         38.83377        60.46357        -1.88803
C         40.20779        62.63857        -1.54016
C         38.95167        63.37755        -1.19121
C         40.22910        65.47906        -0.88151
C         38.99476        64.83288        -0.98857
C         40.24128        66.87910        -0.55427
C         39.02136        67.62056        -0.34028
C         40.34124        69.67342         0.45581
C         39.05445        69.01658        -0.01208
C         40.35989        71.17056         0.27816
C         39.08932        71.99642         0.21942
C         40.41255        73.95682         0.86119
C         39.21969        73.11836         1.28182
C         42.56241        35.75961         1.39599
C         42.21814        36.96102         0.70143
C         41.31752        37.95578         1.00763
C         42.65827        39.98778         0.20716
C         41.40207        39.31143         0.46995
C         42.66499        41.40994         0.07875
C         41.43884        42.12499        -0.05125
C         42.60284        44.28173         0.00604
C         41.44369        43.57164        -0.12569
C         42.54799        45.69965         0.51025
C         41.26411        46.41264         0.15215
C         42.55556        48.56608        -0.00169
C         41.26916        47.89171         0.46090
C         42.52824        49.96751        -0.34069
C         41.27751        50.74624        -0.14873
C         42.55920        52.97035        -0.14876
C         41.39216        52.16760        -0.55250
C         42.55866        54.42004        -0.57494
C         41.36801        54.98177        -1.25138
C         42.67495        57.01331        -1.91154
C         41.35817        56.31674        -1.66828
C         42.54185        58.51358        -1.59241
C         41.31465        59.11106        -2.30186
C         42.46711        61.34018        -2.71884
C         41.25515        60.58701        -2.22661
C         42.70120        62.76377        -2.11672
C         41.49671        63.39830        -1.68442
C         42.69730        65.44164        -1.16523
C         41.47008        64.75088        -1.21071
C         42.79764        66.75497        -0.45124
C         41.52572        67.52724        -0.23443
C         42.77949        69.69131        -0.15085
C         41.59900        69.00172        -0.05258
C         42.85625        71.16430         0.25228
C         41.51884        71.86468         0.24516
C         42.63275        74.15263        -0.26121
C         41.48322        73.34419         0.30520
C         45.12595        33.14371         2.00201
C         43.92342        33.85624         1.92885
C         45.09100        35.69148         0.63729
C         43.82314        35.14442         1.34364
C         45.18338        37.21166         0.57409
C         44.08397        37.92581         0.12870
C         45.14173        40.06209         0.43871
C         43.93922        39.33216         0.25601
C         45.11059        41.48537         0.32265
C         43.91109        42.13552         0.10203
C         45.10646        44.36100         0.41040
C         43.93627        43.61569        -0.20691
C         45.04074        45.81360         0.44660
C         43.82112        46.48593         0.26595
C         45.04443        48.66175         0.15005
C         43.79751        47.90687         0.10824
C         45.07529        50.07055         0.04212
C         43.86933        50.81380        -0.30037
C         45.02833        52.99546         0.05254
C         43.84530        52.26633        -0.08063
C         45.04869        54.45751        -0.17426
C         43.84943        55.12987        -0.67255
C         45.04749        57.26171        -1.04630
C         43.86045        56.40249        -1.19342
C         45.13942        58.54498        -1.84653
C         43.80658        59.22408        -2.04186
C         45.50750        61.52450        -2.63087
C         43.63789        60.40011        -2.69322
C         45.31065        62.92988        -2.48038
C         43.93676        63.52345        -2.24489
C         44.87493        65.88139        -2.04986
C         43.83040        64.89674        -1.81248
C         45.14107        67.00034        -1.32720
C         44.14206        67.50422        -0.32267
C         45.17735        69.75463        -0.79262
C         44.03176        69.02819        -0.49396
C         45.14857        71.23576        -0.81123
C         43.81398        71.93895        -0.66134
C         45.09332        73.99083         0.10817
C         43.93615        73.38688        -0.21716
C         46.33526        33.75448         1.68258
C         47.52943        35.83869         1.35877
C         46.36136        35.10337         1.23423
C         47.58545        37.26261         1.19297
C         46.36809        37.95391         0.84596
C         47.57447        40.11058         0.93508
C         46.36381        39.36450         0.69940
C         47.58741        41.52232         0.83441
C         46.41271        42.23645         0.20872
C         47.50172        44.38244         0.98169
C         46.30147        43.69040         0.60545
C         47.43082        45.84798         1.12048
C         46.23578        46.57003         0.65092
C         47.49118        48.72530         0.62272
C         46.25720        47.97028         0.50084
C         47.50652        50.13349         0.46595
C         46.26642        50.83934         0.25531
C         47.48820        52.99380         0.47810
C         46.24639        52.25373         0.22052
C         47.50111        54.50896         0.24166
C         46.24746        55.15407        -0.18810
C         47.62222        57.25287        -0.67750
C         46.30410        56.59552        -0.49984
C         47.58585        58.77072        -0.85490
C         46.47174        59.28688        -1.81308
C         47.76573        61.45883        -1.82271
C         46.55673        60.76680        -2.06974
C         47.80169        62.83549        -2.16725
C         46.61005        63.56969        -2.43819
C         47.86280        65.72603        -2.33481
C         46.76593        64.97630        -2.68803
C         47.79139        67.06558        -1.72049
C         46.47832        67.66837        -1.23563
C         47.68381        69.80060        -0.83199
C         46.47164        69.12100        -0.97842
C         47.69231        71.19984        -0.45887
C         46.42272        71.95720        -0.52396
C         47.65166        74.01372         0.14908
C         46.37745        73.22833         0.29709
C         48.74995        37.99426         1.42103
C         49.93326        40.16518         1.59903
C         48.76142        39.41385         1.31944
C         49.92676        41.55168         1.56222
C         48.73974        42.25111         1.19013
C         49.95310        44.43393         1.35788
C         48.71134        43.70902         1.20103
C         49.99127        45.84093         1.16605
C         48.73658        46.61341         1.18471
C         49.94584        48.72542         0.74856
C         48.73258        48.04438         0.82041
C         49.97647        50.15082         0.62434
C         48.74409        50.85864         0.50124
C         49.97836        53.01149         0.45868
C         48.76972        52.27999         0.44464
C         49.98745        54.44806         0.22477
C         48.79098        55.16651        -0.01189
C         50.04923        57.35109        -0.08355
C         48.78585        56.56803        -0.38214
C         50.15005        58.66925        -0.81545
C         48.94548        59.37666        -1.17667
C         50.27273        61.40056        -1.73671
C         48.98326        60.71005        -1.56859
C         50.33567        62.87323        -1.81538
C         49.10933        63.51569        -2.29606
C         50.36929        65.75967        -1.99973
C         49.14552        65.04258        -2.35239
C         50.32295        67.27938        -2.14825
C         49.01574        67.87597        -1.66951
C         50.19129        69.81725        -0.75032
C         48.97140        69.14532        -1.08646
C         50.12296        71.14490        -0.12913
C         48.85123        71.88773        -0.18032
C         50.10335        74.04506         0.10382
C         48.85587        73.33664         0.04682
C         51.17926        42.29540         1.96815
C         52.39125        44.44452         1.53772
C         51.18839        43.75095         1.56625
C         52.44583        45.84241         1.26935
C         51.21108        46.51798         1.04546
C         52.50408        48.70072         0.87673
C         51.20860        47.95507         0.73187
C         52.40698        50.15700         1.16709
C         51.18541        50.88697         0.76396
C         52.45684        53.02219         0.77198
C         51.20812        52.29461         0.67339
C         52.45207        54.39390         0.44053
C         51.26270        55.11428         0.13970
C         52.54456        57.18482        -0.27881
C         51.32642        56.53192        -0.13178
C         52.62611        58.59235        -0.55895
C         51.38978        59.28506        -0.87057
C         52.66922        61.45241        -0.79112
C         51.50973        60.66839        -1.35929
C         52.74720        62.90138        -1.25931
C         51.52085        63.58634        -1.66803
C         52.82837        65.75923        -1.89146
C         51.52810        65.04556        -1.83459
C         52.85910        67.30142        -1.90806
C         51.53682        67.92760        -1.53891
C         52.70156        69.91900        -0.64982
C         51.46870        69.19412        -0.96188
C         52.67637        71.27076        -0.28786
C         51.40294        71.92913         0.05444
C         52.57269        74.11341         0.10613
C         51.35180        73.41136         0.07701
C         53.67167        46.57159         1.36452
C         54.92179        48.71382         1.42830
C         53.72939        47.96892         1.27682
C         54.96396        50.12592         1.32928
C         53.69620        50.89946         1.36137
C         54.93858        52.98151         1.00719
C         53.70265        52.34418         1.05888
C         54.99954        54.43286         0.82912
C         53.71734        55.15518         0.51864
C         55.09395        57.16501        -0.13902
C         53.81933        56.38138        -0.35075
C         55.11164        58.52415        -0.44206
C         53.87132        59.22615        -0.68697
C         55.13842        61.40003        -0.46667
C         53.95476        60.67844        -1.11794
C         55.20757        62.85479        -0.89207
C         53.95543        63.55847        -1.14881
C         55.23987        65.74286        -1.08432
C         54.06475        64.98986        -1.53271
C         55.22662        67.13976        -0.96456
C         54.02831        67.88862        -1.14798
C         55.15359        69.92036        -0.31360
C         53.96987        69.24084        -0.73391
C         55.11559        71.32630        -0.04768
C         53.87226        72.01542        -0.09540
C         55.04820        74.13695         0.27385
C         53.83063        73.44072         0.11302
C         56.16562        50.83314         1.25205
C         57.40496        52.94104         1.00156
C         56.18878        52.25150         1.09754
C         57.48825        54.34511         0.72827
C         56.28221        55.08518         0.52223
C         57.57119        57.12694         0.13484
C         56.31224        56.45085         0.17171
C         57.62436        58.52000        -0.16537
C         56.38428        59.24666        -0.44435
C         57.66331        61.39357        -0.32060
C         56.41235        60.61306        -0.60279
C         57.70883        62.76617        -1.02056
C         56.40209        63.52066        -0.83358
C         57.69095        65.70247        -0.84798
C         56.40663        64.98489        -0.51612
C         57.67339        67.14127        -0.51684
C         56.43755        67.82751        -0.53847
C         57.59372        69.86676         0.18623
C         56.39978        69.21402        -0.24267
C         57.52207        71.29383         0.59749
C         56.29281        72.03705         0.29934
C         57.53081        74.17261         0.49956
C         56.28488        73.45471         0.38495
C         58.72347        55.01377         0.66094
C         60.01555        57.11110         0.45157
C         58.78606        56.41056         0.41427
C         60.06869        58.50270         0.20638
C         58.85353        59.18901        -0.12185
C         60.15258        61.36913        -0.19024
C         58.93618        60.60164        -0.63316
C         60.14174        62.79305        -0.25325
C         58.95896        63.49609        -0.57992
C         60.19388        65.69622        -0.32718
C         58.99492        64.94577        -0.72654
C         60.13044        67.07319        -0.10400
C         58.86504        67.79532        -0.15941
C         59.99516        69.79108         0.88422
C         58.79830        69.15692         0.23440
C         60.06987        71.30184         0.61060
C         58.78994        72.07656         0.87253
C         59.99100        74.33183         0.57698
C         58.76437        73.56482         0.68204
C         61.28469        59.23699         0.29068
C         62.53820        61.38416         0.36139
C         61.33705        60.65813         0.15642
C         62.57949        62.79922         0.25761
C         61.37043        63.51987        -0.01844
C         62.62277        65.63162         0.10047
C         61.40329        64.94372        -0.07249
C         62.62507        67.09765         0.00001
C         61.34410        67.80965         0.16351
C         62.54345        69.86363         0.83196
C         61.32734        69.14902         0.52591
C         62.45177        71.22280         1.35180
C         61.21837        71.77281         1.45078
C         62.53809        74.26572         0.95801
C         61.18174        73.93403         1.18866
C         63.78952        63.51758         0.44951
C         65.04193        65.64790         0.67139
C         63.83645        64.92702         0.37806
C         65.09189        67.04694         0.76580
C         63.90683        67.84011         0.37336
C         64.96248        69.90419         1.31583
C         63.78402        69.21839         0.85846
C         64.93177        71.28315         1.61094
C         63.63020        72.01793         1.88301
C         64.91167        74.10761         1.38355
C         63.66281        73.48401         1.37532
C         66.22509        67.76144         1.20061
C         67.39609        69.87967         1.67701
C         66.21196        69.17604         1.37779
C         67.39406        71.28606         1.78684
C         66.14552        71.99114         1.73244
C         67.35084        74.12150         1.81276
C         66.13528        73.42985         1.69036
C         68.59482        72.03662         1.95234
C         68.56026        73.42203         1.97771
O         42.31038        54.02141         0.83391
O         37.99559        56.45883        -3.10491
O         43.22577        50.37196        -1.55056
O         52.03122        48.32558        -0.45262
O         49.29869        64.21820        -3.56570
O         43.02498        37.20595        -0.43625
O         63.51159        67.65414        -1.03133
O         58.02072        71.56036         1.99134
O         52.85044        50.51644         2.51527
O         28.78149        68.92237         3.29671
O         54.25524        55.23403         1.85679
O         44.66030        60.86006        -3.51412
O         37.41972        49.34746         1.32147
O         35.76931        65.46784        -2.00946
O         33.59204        71.09891         3.07490
O         45.89415        71.92020        -1.88973
O         47.31795        66.91802        -0.28743
O         55.00572        61.47813         0.95233
O         58.37926        65.35557        -2.06919
O         40.86348        58.63646        -3.61591
O         40.67002        50.62570         1.19441
O         45.65407        65.64987        -3.18481
O         61.02708        72.93406         2.18952
O         36.72908        71.77898        -0.41583
O         28.29440        62.62461         1.50144
O         53.68514        65.22734        -2.96369
O         51.20165        60.81023        -2.77641
O         34.00654        68.94330        -0.96433
O         39.71769        62.67147        -0.13222
O         47.94833        46.35416         2.40298
O         35.75847        69.79722         2.30275
O         42.16608        66.73060         0.88044
O         37.40720        62.19402        -2.81421
O         39.60388        51.99816        -2.08145
O         45.40955        57.41354         0.36272
O         46.10111        58.45553        -2.94712
O         47.39657        53.94286         1.59797
O         50.77326        71.26254         1.20229
O         33.48828        58.53544         0.86569
O         57.63834        61.65749         1.09902
H         56.66729        61.65865         1.36539
O         53.09294        67.67798        -3.31799
H         53.64067        66.94537        -3.69819
O         63.51770        72.09773         3.33100
H         62.63956        72.49781         3.52139
O         44.18883        43.70118        -1.65752
H         45.02573        43.19889        -1.82252
O         37.77653        65.07644         1.02734
H         38.68485        65.22374         1.36923
O         49.87164        57.74341         1.32942
H         49.92539        56.92850         1.87423
O         41.26443        48.01600         1.92845
H         41.09685        48.97252         2.12563
O         52.44299        61.45686         0.63111
H         53.34482        61.52413         1.07145
O         46.68401        42.27118        -1.25250
H         47.58092        42.65100        -1.37340
O         54.17275        60.70850        -2.54502
H         53.30309        60.63850        -2.99960
O         60.39274        71.52518        -0.78478
H         61.16964        70.97201        -1.01723
O         45.01909        35.20133        -0.73139
H         44.22972        35.62778        -1.13606
O         46.37460        72.74030         1.68384
H         46.42238        73.51745         2.27862
O         53.89745        55.85590        -1.72263
H         53.94352        56.62173        -2.33408
O         43.19866        71.93524        -1.97080
H         43.89735        72.19301        -2.61253
O         32.20693        67.15620        -1.58854
H         32.54961        68.02575        -1.90273
O         57.84747        62.60754        -2.45626
H         57.93524        63.51387        -2.83370
O         39.05247        72.60385        -1.08677
H         38.10187        72.70518        -1.32828
O         50.38043        67.55614        -3.58978
H         51.34064        67.56997        -3.84194
O         40.35963        69.44959         1.91189
H         40.43291        68.48199         2.06035
O         37.79059        54.40755         0.12591
H         36.94055        54.23694         0.58808
O         56.31993        65.06965         0.95275
H         55.71465        64.36029         1.26188
O         59.05163        60.46007        -2.08093
H         59.84703        59.91770        -2.26418
O         34.08232        55.67006         0.85564
H         34.02214        56.45295         1.44641
O         31.62892        72.07983         0.14267
H         30.84283        72.64357        -0.01669
O         40.06178        44.13843        -1.94436
H         40.09722        43.18170        -2.16053
O         47.23312        59.32956         0.44237
H         47.89632        59.00254         1.09136
O         42.50817        45.54542         1.97560
H         42.17728        46.40196         2.34237
O         52.34719        41.61878         1.48783
H         52.32480        41.62453         0.50928
O         42.74160        75.41787         0.39072
H         42.87489        75.25659         1.34701
O         39.51426        72.45986         2.54703
H         39.59312        73.14895         3.23854
O         42.18788        61.61313        -4.12325
H         43.05177        61.60364        -4.59420
O         43.39876        71.20829         1.59041
H         42.74599        70.78981         2.19140
O         38.72927        46.52097        -1.96661
H         39.07998        45.66836        -2.32572
O         33.69906        55.51847        -2.77767
H         33.64227        54.79091        -3.43101
O         42.94236        56.87234        -3.32808
H         42.23512        57.36460        -3.81556
O         59.85456        69.61011         2.31872
H         59.06783        70.14240         2.59908
O         44.65810        67.27325         1.00275
H         43.88032        67.18270         1.60017
O         42.28907        58.68344        -0.18458
H         43.05987        58.34452         0.32049
H         23.19105        75.02105         2.74698
H         25.66079        74.97561         2.80074
H         28.14586        74.92244         2.82786
H         30.60576        74.86939         2.88940
H         33.06321        74.91431         2.54423
H         35.49031        74.98155         2.04353
H         38.00828        74.95643         1.79715
H         40.39054        75.05294         0.96613
H         42.39433        74.36214        -1.34002
H         45.07612        75.05792         0.38822
H         47.64490        75.10295         0.31089
H         50.06802        75.14247         0.18172
H         52.55660        75.21193         0.16853
H         55.03156        75.23331         0.36379
H         57.49199        75.26845         0.40354
H         59.97635        75.24792        -0.03316
H         62.76085        75.20027         0.41700
H         64.96813        75.18298         1.14968
H         67.35669        75.22011         1.77113
H         22.12499        69.25543         1.63540
H         20.94689        71.39947         2.00726
H         21.01881        73.84578         2.45333
H         24.50334        65.07225         0.63804
H         23.32184        67.12182         1.21590
H         27.05383        60.93222        -1.13507
H         25.61144        63.25623        -0.42494
H         29.24766        56.66555        -1.48003
H         28.12050        58.87418        -1.23109
H         31.56735        52.20978        -0.97216
H         30.35132        54.36789        -1.34121
H         34.08755        47.90951        -0.26830
H         32.79413        50.09025        -0.57860
H         36.78184        43.72672         0.44203
H         35.43157        45.74764         0.10875
H         39.27711        39.57805         0.73425
H         38.06334        41.64536         0.54608
H         41.79944        35.29454         2.04203
H         40.54181        37.76793         1.76562
H         45.12204        32.12403         2.41189
H         43.00747        33.39418         2.32773
H         47.28413        33.24788         1.91423
H         48.43595        35.32671         1.71983
H         49.67682        37.47137         1.70008
H         50.85941        39.64017         1.87534
H         51.24422        42.26078         3.09347
H         53.32440        43.89887         1.74166
H         54.59062        46.01513         1.60306
H         55.86900        48.17010         1.56558
H         57.12001        50.28611         1.27065
H         58.34290        52.37610         1.11246
H         59.65370        54.45496         0.83951
H         60.93954        56.56689         0.69586
H         62.21158        58.69823         0.53884
H         63.46061        60.83802         0.60818
H         64.70960        62.95973         0.67813
H         65.94256        65.06779         0.92415
H         67.15804        67.21420         1.40507
H         68.34547        69.33007         1.76014
H         69.55280        71.50382         2.03642
H         69.49596        73.98754         2.09169
