         349
 CSIRO Nanostructure Databank - Neutral Graphene Oxide Data Set
C          1.24799         2.45591        -1.33744
C          1.20867         3.75971        -0.82208
C          2.44901         1.79998        -1.61533
C          2.39544         4.48299        -0.56673
C          1.25220         6.35629         0.65894
C          1.24851         7.61571         1.16349
C          2.43521         5.68131         0.17244
C          2.47500         8.43199         1.50138
C          1.24648        10.55843         0.84820
C          1.19556        11.98111         0.63033
C          2.40445         9.90177         1.12356
C          2.31620        12.77875         0.71401
C          1.10294        14.87608        -0.03911
C          1.11549        16.16843        -0.52110
C          2.31060        14.21463         0.39023
C          2.31251        16.92440        -0.58261
C          2.39503        18.14168        -1.26796
C          3.69036         2.46667        -1.48478
C          3.64826         3.96623        -1.26309
C          4.90192         1.81629        -1.72281
C          4.93040         4.52118        -0.72722
C          3.72506         6.30547         0.47162
C          3.77793         7.75693         1.04403
C          4.95632         5.77770        -0.14334
C          4.94947         8.53205         0.66095
C          3.69915        10.66048         1.26956
C          3.59841        12.14560         0.96587
C          4.80757        10.01363         0.40877
C          4.75971        12.87101         0.97253
C          3.48301        14.94934         0.44904
C          3.51982        16.43415         0.18219
C          4.72984        14.34961         0.95242
C          4.83885        16.77614        -0.53794
C          3.62264        18.77785        -1.48103
C          4.85000        18.18236        -1.10881
C          6.16936         2.41665        -1.46958
C          6.18016         3.69554        -0.67468
C          7.38579         1.79721        -1.71004
C          7.43844         4.50013        -0.84946
C          6.16721         6.53292        -0.06296
C          6.13531         7.91012         0.23690
C          7.33507         6.00552        -0.85667
C          7.30233         8.77760        -0.22988
C          6.11582        10.73720         0.63344
C          6.05083        12.19080         0.75312
C          7.33127        10.14034         0.41627
C          7.35533        12.92996         0.94132
C          6.02035        15.14692         1.05704
C          6.06079        16.45225         0.32071
C          7.29495        14.36592         1.28702
C          7.22885        17.15004         0.04815
C          6.07169        18.75647        -1.44458
C          7.29308        18.18233        -0.98450
C          8.64099         2.42284        -1.36022
C          8.61705         3.83806        -0.99337
C          9.85520         1.76639        -1.46483
C          9.88948         4.53351        -0.58441
C          8.62279         6.72493        -0.54770
C          8.63040         8.05691        -0.25512
C          9.87216         6.01520        -0.87363
C          9.87971         8.78000        -0.02239
C          8.58384        10.81427         0.72684
C          8.56354        12.13115         1.21389
C          9.83541        10.08630         0.55292
C          9.76381        12.77210         1.83012
C          8.44618        14.95738         1.67272
C          8.47648        16.87407         0.71657
C          9.78370        14.33524         1.84058
C          9.71881        17.04151         0.12525
C          8.54586        18.60600        -1.42420
C          9.76108        18.02835        -0.94092
C         11.12174         2.39591        -1.14371
C         11.16771         3.82568        -0.91906
C         12.29536         1.67063        -1.06982
C         12.38603         4.50107        -0.77420
C         11.15919         6.77376        -0.79549
C         11.12886         8.14212        -0.23524
C         12.43752         5.98629        -0.78795
C         12.34667         8.74726         0.21598
C         11.04608        10.69830         0.96176
C         10.96806        11.80442         1.99471
C         12.27490        10.04063         0.80685
C         12.26365        12.54234         2.14297
C         10.97887        15.21266         1.49163
C         10.94015        16.39437         0.60764
C         12.22420        14.74243         1.89103
C         12.15673        16.94178         0.18231
C         10.99829        18.51685        -1.34746
C         12.19926        18.04568        -0.75301
C         13.49569         2.27073        -0.40408
C         13.59348         3.77539        -0.54986
C         14.78866         1.58576        -0.72697
C         14.79018         4.41570        -0.16525
C         13.69008         6.66334        -0.29413
C         13.60297         8.04225         0.22887
C         14.84745         5.81702         0.05647
C         14.80284         8.64438         0.70697
C         13.46858        10.57565         1.55885
C         13.45746        12.08793         1.70774
C         14.78161         9.99728         1.15418
C         14.70792        12.91860         2.01199
C         13.51985        15.12245         1.36599
C         13.45648        16.46837         0.73509
C         14.68710        14.35197         1.41438
C         14.72945        17.10768         0.29118
C         13.40871        18.63559        -1.15846
C         14.67657        18.17859        -0.73509
C         15.98389         2.15916        -0.35481
C         15.93332         3.52622         0.31587
C         17.20574         1.42311        -0.34162
C         17.28602         4.25094         0.30336
C         16.02504         6.50089         0.48480
C         16.03248         7.88307         0.70413
C         17.30222         5.73794         0.54257
C         17.34208         8.63901         0.87997
C         15.96408        10.75018         1.42511
C         15.95675        12.12162         1.67253
C         17.21820         9.95877         1.61003
C         17.22993        12.87433         1.60797
C         15.95085        14.90002         0.90539
C         16.00682        16.34014         0.47923
C         17.13388        14.18064         0.89196
C         17.23318        16.90361        -0.17671
C         15.84242        18.70694        -1.26604
C         17.12561        18.09937        -1.06174
C         18.45838         2.05986        -0.15174
C         18.47101         3.49295        -0.18766
C         19.71159         1.39857        -0.14157
C         19.66582         4.07891        -0.58533
C         18.53273         6.57407         0.54268
C         18.45822         7.73221         1.49096
C         19.69309         6.22918        -0.05639
C         19.82619         8.44854         1.63561
C         18.48868        10.64825         2.01275
C         18.52673        12.13315         1.72603
C         19.82102         9.90681         1.99961
C         19.69646        12.44287         0.78336
C         18.34444        14.64206         0.14500
C         18.41808        16.03628        -0.37221
C         19.61481        13.81238         0.10298
C         19.49456        16.48149        -1.07416
C         18.20614        18.53394        -1.77197
C         19.48320        17.76082        -1.90004
C         20.95461         2.07869        -0.19436
C         20.95656         3.50946        -0.45909
C         22.13621         1.29842         0.08368
C         22.10563         4.42248        -0.38823
C         21.01593         6.62954         0.35985
C         21.08757         7.85778         1.07897
C         22.15038         5.82040         0.08466
C         22.32153         8.50016         1.22652
C         21.11264        10.72889         2.11493
C         21.03253        12.11612         1.43344
C         22.39229         9.90691         1.74141
C         22.25417        12.80973         0.93559
C         20.88492        14.48289        -0.30109
C         20.76384        15.72366        -1.09319
C         22.12680        13.99033         0.03666
C         22.03659        16.55490        -1.29223
C         20.70787        18.60764        -1.64369
C         21.94474        18.03869        -1.42419
C         23.37672         1.67579        -0.40002
C         23.35041         3.83758        -0.66021
C         24.68620         1.24530        -0.07604
C         24.62314         4.33948        -0.28826
C         23.43508         6.44631         0.30464
C         23.49604         7.82656         0.74065
C         24.65693         5.74215         0.06611
C         24.74548         8.52104         0.66722
C         23.63178        10.67689         1.36735
C         23.56678        12.12292         1.01750
C         24.80450         9.93741         0.83305
C         24.69980        12.75861         0.59635
C         23.34970        14.71878        -0.25845
C         23.29359        15.98644        -0.80691
C         24.64488        14.10426         0.04727
C         24.50741        16.79904        -1.01637
C         23.12091        18.83455        -1.26492
C         24.40608        18.28213        -1.04419
C         25.81970         2.07146        -0.24505
C         25.78638         3.51958        -0.25042
C         27.09182         1.38002        -0.30556
C         27.06501         4.22451        -0.04272
C         25.91495         6.41518         0.07331
C         25.95170         7.84133         0.29938
C         27.11410         5.69904        -0.14058
C         27.16863         8.53033         0.21933
C         25.99478        10.62955         0.66487
C         26.03952        12.11852         0.90123
C         27.21909         9.93294         0.43018
C         27.22620        12.74035         0.21936
C         25.81302        14.75948        -0.25051
C         25.80658        16.14857        -0.73169
C         27.10997        14.04820        -0.49103
C         26.99837        16.97186        -0.37320
C         25.56650        19.03847        -0.90763
C         26.86669        18.45369        -0.49669
C         28.30344         2.01679        -0.42969
C         28.35521         3.47580        -0.19617
C         29.56117         1.33847        -0.60671
C         29.54393         4.21471        -0.76506
C         28.37446         6.35737        -0.21738
C         28.39078         7.85912        -0.34255
C         29.58659         5.66968        -0.36525
C         29.69633         8.48193         0.08031
C         28.44536        10.64016         0.40404
C         28.43841        12.05310         0.19487
C         29.73023         9.89942         0.59493
C         29.67876        12.74811        -0.09099
C         28.35018        14.90791        -0.37223
C         28.31453        16.27628        -0.41304
C         29.63307        14.17710        -0.44309
C         29.51756        17.09515        -0.31750
C         28.13824        19.26606        -0.66195
C         29.41295        18.51109        -0.30755
C         30.75618         2.02063        -0.61609
C         30.82588         3.45138        -0.56329
C         32.01257         4.15954        -0.47672
C         30.85641         6.33592        -0.31008
C         30.88647         7.78302        -0.03804
C         32.02774         5.57463        -0.39690
C         32.12323         8.51228         0.07386
C         30.96784        10.66457         0.19116
C         30.91896        12.09141         0.03726
C         32.14971         9.90392         0.09633
C         32.12303        12.89768         0.14256
C         30.92339        15.00579        -0.32450
C         30.78698        16.47648        -0.13959
C         32.11433        14.25613         0.10742
C         31.90536        17.27728         0.14101
C         30.55322        19.27642        -0.04257
C         31.78439        18.66451         0.20706
O         19.93995         8.87661         3.02465
O         21.46100        15.74629        -2.38340
O         23.33619         2.66337        -1.41448
O         18.14036        13.01137         2.79678
O         12.19672        13.74060         2.84660
O         16.97643        17.13685         1.25139
O         23.41371        10.21138         2.74749
O         21.62891        13.14587         2.25852
O          4.00554         6.59252         1.89007
O         25.36626        16.27754        -2.13577
O         13.38214         6.54865        -1.75283
O         10.81918        11.06709         3.20384
O         27.90171         3.80676         1.14100
O         30.42799        14.54189        -1.62228
O         26.79438        17.78758         0.83576
O         18.64422        13.71340        -0.99704
O          8.41211        16.32083         1.99589
O         17.48718         4.79134         1.65762
O          5.13356        15.05053         2.23215
O         14.11634        17.51191         1.55841
O         19.61841         5.35749        -1.14768
O          9.64708        13.54428         3.06452
O         10.47535         6.53628        -2.08862
O         17.60477        10.09419         3.01683
O          6.79300        12.76306        -0.41640
O         28.30790         8.12151        -1.79978
H         28.99933         7.57647        -2.23367
O          2.53340         8.42797         2.97125
H          2.89643         7.54566         3.22321
O          3.49103        17.11320         1.46621
H          4.03984        16.57558         2.09182
O         21.17764        10.99708         3.52158
H         21.79676        11.74792         3.65910
O         19.53069        17.36202        -3.30800
H         20.30170        16.74816        -3.40150
O         14.80398        13.10156         3.44499
H         14.68709        12.22601         3.87246
O         18.01352         7.28647         2.76712
H         18.33022         7.94500         3.43127
O         26.25823        12.31457         2.34183
H         25.61031        11.75474         2.82279
O          3.54139         4.53516        -2.62547
H          2.71099         4.18496        -3.01448
O         13.28367        10.04579         2.92040
H         12.34971        10.32420         3.21590
O         27.02364        13.69613        -1.92564
H         26.69291        14.48773        -2.40799
O         29.86068         9.75825         2.07636
H         30.69550         9.26882         2.24304
O          6.97984         9.05614        -1.66023
H          7.68559         9.64310        -2.01008
O          4.14404        10.57431         2.64883
H          3.61077         9.87466         3.10477
O          4.43792        10.17969        -0.98446
H          5.20537         9.86803        -1.52464
O         17.77239         9.03525        -0.45803
H         17.76270         8.24129        -1.03499
O         19.59962        11.44570        -0.26958
H         19.01649        11.81834        -0.97362
O          6.22159         3.25191         0.74363
H          6.92709         2.57416         0.81653
O         15.63738         3.23942         1.70561
H         14.79858         2.71122         1.72422
O         29.30504         4.21047        -2.22159
H         30.13663         4.49177        -2.65860
O         28.03539        20.46320         0.11818
H         27.82392        20.19690         1.03746
O         13.26330         2.02715         1.06908
H         12.47441         2.55328         1.32400
O          4.90864        15.87290        -1.68291
H          5.70531        16.10469        -2.20512
O          9.85795         4.49673         0.89842
H          9.67004         3.57388         1.17252
O          7.02525         6.32332        -2.25606
H          6.96162         7.30955        -2.32230
H          0.30183         1.91031        -1.46178
H          0.23342         4.18254        -0.54376
H          2.43791         0.73389        -1.88493
H          0.28364         5.85000         0.53501
H          0.28907         8.03405         1.50187
H          0.29934        10.00401         0.77498
H          0.21719        12.41409         0.38165
H          0.15460        14.32200        -0.03604
H          0.19245        16.60150        -0.93575
H          1.47995        18.58442        -1.68966
H          4.87859         0.77314        -2.07790
H          3.64584        19.74726        -2.00115
H          7.41102         0.81220        -2.20067
H          6.10320        19.68293        -2.03805
H          9.87227         0.70731        -1.76286
H          8.61105        19.40625        -2.17589
H         12.28377         0.58506        -1.24911
H         11.05194        19.31802        -2.09888
H         14.76607         0.58142        -1.17745
H         13.36889        19.45055        -1.89668
H         17.17559         0.34082        -0.54127
H         15.77466        19.53892        -1.98311
H         19.72496         0.30109        -0.06758
H         18.09164        19.40114        -2.44045
H         22.03699         0.40515         0.71709
H         20.62714        19.69945        -1.75364
H         24.83993         0.22576         0.30955
H         23.01379        19.92817        -1.31751
H         27.05803         0.28114        -0.36718
H         25.51455        20.13280        -1.01108
H         29.55852         0.24049        -0.67431
H         28.21688        19.58865        -1.73625
H         31.70062         1.45698        -0.65911
H         32.96833         3.61699        -0.42657
H         33.00638         6.06845        -0.33193
H         33.07800         7.97539        -0.00321
H         33.11947        10.40796        -0.02699
H         33.05943        12.38757         0.41061
H         33.03007        14.80595         0.36847
H         32.89118        16.81596         0.28997
H         30.46593        20.37175        -0.02582
H         32.66906        19.27982         0.42102
