         294
 CSIRO Nanostructure Databank - Neutral Graphene Oxide Data Set
C          1.56144         1.93413        -1.51613
C          1.35250         3.32974        -1.16540
C          2.60149         1.21794        -1.04430
C          2.25120         4.01222        -0.41127
C          1.10412         6.41194        -0.63494
C          1.11610         7.75872        -0.51272
C          2.27129         5.52126        -0.22587
C          2.31292         8.54631        -0.03303
C          1.14096        10.75482         0.51798
C          0.98677        12.10875         0.48618
C          2.38541         9.94183         0.61324
C          2.03377        13.02127         0.91287
C          1.51345        15.22893        -0.13207
C          1.53247        16.55542         0.11962
C          2.34887        14.32549         0.64957
C          2.41102        17.06792         1.25160
C          2.52479        18.56696         1.29828
C          3.54328         1.78993        -0.00946
C          3.52231         3.31739        -0.01532
C          4.93783         1.20509        -0.09340
C          4.80473         4.07968        -0.15018
C          3.54029         5.97514        -0.94949
C          3.56991         8.13675        -0.69410
C          4.76507         5.48671        -0.63504
C          4.82768         8.50549        -0.39906
C          3.76424        10.56786         0.61681
C          3.95837        11.81868         1.09819
C          5.04528         9.79693         0.31451
C          5.17219        12.69841         0.84808
C          3.67669        14.86618         1.23215
C          3.74401        16.37519         1.12031
C          4.85715        14.15741         0.56689
C          4.92608        17.03529         1.05206
C          3.70847        19.20451         1.29944
C          4.97188        18.49877         1.09481
C          6.10644         1.91217        -0.21227
C          6.06196         3.37148        -0.61694
C          7.38408         1.26297        -0.14746
C          7.30336         4.18663        -0.29965
C          6.00335         6.33712        -0.36119
C          6.02756         7.75034        -0.98631
C          7.29711         5.54555        -0.40502
C          7.31791         8.51800        -0.67907
C          5.94067        10.59138        -0.65919
C          5.99906        12.08889        -0.30864
C          7.28553         9.88115        -0.69462
C          7.20913        12.86162        -0.68766
C          5.93682        15.03089        -0.03789
C          6.19975        16.22048         0.95995
C          7.28043        14.32229        -0.34151
C          7.43915        17.02796         0.62090
C          6.13283        19.18729         0.92296
C          7.35644        18.52796         0.36177
C          8.56953         1.97997         0.03576
C          8.47610         3.46394         0.34184
C          9.82240         1.34314         0.11604
C          9.81414         4.12503        -0.00701
C          8.52062         6.35412        -0.11177
C          8.58501         7.79989        -0.48605
C          9.79810         5.63164         0.13698
C          9.78550         8.45527        -0.53642
C          8.52555        10.69798        -0.46023
C          8.44473        12.08561        -1.17468
C          9.80980         9.93265        -0.91469
C          9.78124        12.87777        -0.97399
C          8.59510        14.98973        -0.12083
C          8.61289        16.39452         0.37585
C          9.87789        14.16562        -0.13377
C          9.96595        17.08755         0.50260
C          8.64798        19.23582         0.64941
C          9.85916        18.62178         0.38964
C         11.02081         2.01532         0.51703
C         10.94356         3.50065         0.81637
C         12.20195         1.36771         0.77946
C         12.25954         4.22109         0.58724
C         11.10355         6.30911        -0.07599
C         11.11453         7.71189        -0.66135
C         12.26229         5.63434         0.20330
C         12.27813         8.51900        -0.03626
C         11.06743        10.71212        -0.40416
C         11.09822        12.13045        -0.95461
C         12.36315         9.93350        -0.62461
C         12.36394        12.86231        -0.73815
C         11.01850        15.03495        -0.67876
C         11.00351        16.51163        -0.46073
C         12.35468        14.36453        -1.02421
C         12.32328        17.26540        -0.63152
C         11.08781        19.30105         0.29507
C         12.33046        18.66196        -0.00502
C         13.35064         2.11725         1.40349
C         13.39980         3.56435         0.93497
C         14.65648         1.38552         1.23992
C         14.66177         4.29104         1.18023
C         13.58578         6.32367         0.12097
C         13.61151         7.79231        -0.10445
C         14.69895         5.80432         1.02156
C         14.81279         8.61764         0.34617
C         13.67631        10.65740        -0.81145
C         13.59149        12.18134        -0.76954
C         15.03330         9.83588        -0.64080
C         14.73653        12.98976        -1.00329
C         13.52354        15.00519        -0.31010
C         13.49407        16.44894        -0.06625
C         14.84419        14.46895        -0.80028
C         14.79260        17.16876         0.12619
C         13.53765        19.30476         0.12420
C         14.81247        18.64587        -0.33731
C         15.90433         2.02219         1.24070
C         15.92073         3.51853         1.27083
C         17.11610         1.33293         1.40354
C         17.20103         4.26545         1.19342
C         16.06072         6.40254         0.68919
C         16.09253         7.78284         0.44889
C         17.27956         5.68316         0.85614
C         17.34360         8.43969         0.38616
C         16.20585        10.61771        -0.07350
C         16.49056        11.90669        -0.42776
C         17.26872         9.91127         0.74365
C         17.40217        12.80289         0.23166
C         16.09109        14.94823        -0.06336
C         16.12832        16.43665         0.29041
C         17.27192        14.23213         0.13686
C         17.26306        17.17040        -0.44862
C         16.09118        19.30207         0.10899
C         17.29410        18.64286        -0.03422
C         18.40813         2.08126         1.24463
C         18.25025         3.52633         1.66831
C         19.69331         1.47966         1.76897
C         20.06610         4.36475         1.07904
C         18.52848         6.30669         0.48765
C         18.54728         7.71279         0.26091
C         19.75651         5.49125         0.28886
C         19.86567         8.47816         0.00365
C         18.61828        10.64080         0.62618
C         18.65513        12.13391         0.66757
C         19.56358         9.96493        -0.35866
C         20.00151        12.82885         0.43284
C         18.51620        15.03014         0.37784
C         18.57827        16.43455        -0.17827
C         19.86313        14.34103         0.44797
C         19.84931        17.20376        -0.06836
C         18.53828        19.32790         0.08256
C         19.78622        18.69213        -0.03500
C         20.88044         2.05899         1.48426
C         20.96598         3.33217         0.73567
C         21.78533         3.53728        -0.38019
C         20.62541         5.63917        -0.81706
C         20.69402         7.95683        -1.16671
C         21.62679         4.70936        -1.12938
C         21.62819         8.73049        -1.77810
C         20.78099        10.79566        -0.79965
C         20.63747        12.31897        -0.86069
C         21.74691        10.14548        -1.49442
C         21.89868        13.10180        -1.13460
C         21.07030        15.08570         0.05502
C         21.12582        16.54384         0.47761
C         22.03560        14.41717        -0.71920
C         22.32839        17.32397         0.00558
C         21.00142        19.37965        -0.10021
C         22.23917        18.66970        -0.19518
O          7.96692        14.99114        -1.46475
O         10.45146        16.93898         1.79311
O          6.02253        12.80920        -1.57373
O         15.19614         3.94597         2.53006
O         20.48502         6.69884        -1.71614
O         10.54229        12.70243        -2.20069
O         12.92379        10.07903        -1.95070
O         18.88505        11.29513         1.90418
O         13.93524        16.93263         1.27766
O         15.81480        12.42209        -1.58562
O         19.18492        14.84533         1.66517
O          2.36066         8.72067         1.41481
O         19.46459        16.57278        -1.34785
O         19.33572         4.17563         2.26608
O         10.51919        15.94667        -1.71560
O          2.90558        12.37883         1.82938
O         11.36736         7.58616        -2.08859
O          3.40205         7.15042        -1.68385
O          4.26145         3.81397         1.18617
O          9.03160         6.13836         1.27969
O         20.93489        12.49472         1.47023
H         20.53587        12.74936         2.32891
O          5.93344         3.36401        -2.07261
H          6.79542         3.09105        -2.45157
O          9.86726         9.95365        -2.34883
H         10.48685         9.24320        -2.63864
O          8.19278         3.56298         1.75433
H          8.49089         4.45738         2.05153
O         20.69129         8.41570         1.18114
H         20.25822         8.93526         1.89107
O          5.43769        15.59780        -1.25825
H          6.22273        15.84779        -1.79832
O         14.32460         6.35306         2.31723
H         14.76639         5.79044         2.99545
O         18.58157         2.19827        -0.22951
H         18.68964         1.28810        -0.57949
O         12.55177        17.43697        -2.03541
H         12.00045        16.76168        -2.50208
O         16.48139        16.52263         1.69047
H         15.64012        16.42647         2.19576
O          8.54158        10.97283         0.95896
H          7.76102        10.54471         1.38455
O          5.87951         6.63421         1.07651
H          5.83993         5.78142         1.56296
O         14.81388        18.69189        -1.78605
H         15.53164        18.09082        -2.11013
O         15.38998         9.32638        -1.92685
H         14.55976         9.18618        -2.43676
O         16.90279         9.89386         2.16008
H         17.43573        10.60980         2.59377
O         10.05563         3.83545        -1.40553
H         10.87810         4.29387        -1.68006
O          1.79777        16.65596         2.51044
H          2.35716        15.93978         2.89724
O          8.24582        11.85156        -2.56459
H          8.24794        12.71660        -3.02391
O          3.73774        14.63803         2.67085
H          3.51901        13.68614         2.83417
O         10.68227         3.67090         2.22551
H         11.39160         3.17493         2.70779
O         14.44441         9.16635         1.63021
H         15.27567         9.41888         2.11690
O          6.46938        15.56358         2.22971
H          6.82690        16.22509         2.85937
O         11.00086        10.99886         1.01113
H         11.06717        10.13383         1.49780
O          5.92841         7.65002        -2.41075
H          5.73394         8.55618        -2.74443
O         15.08548        14.99717        -2.15753
H         14.21939        14.95527        -2.63806
O         21.14552        16.62469         1.92276
H         20.39919        16.06809         2.25718
O         13.06585         2.20545         2.85685
H         13.80332         2.74954         3.23011
O         12.52334        14.47682        -2.48247
H         11.75064        14.00816        -2.88601
O         11.93231         8.60222         1.36786
H         12.77528         8.71881         1.88145
O          5.32051        10.46278        -1.95947
H          5.65843        11.22178        -2.49618
O          3.02719         1.36714         1.28666
H          3.48397         1.91944         1.95922
O          6.04450        12.70155         2.02260
H          6.11913        13.63047         2.35861
O          2.48769         5.82831         1.16882
H          3.17619         5.20861         1.51687
O         17.00578        17.09928        -1.86291
H         17.88388        17.07389        -2.31252
O          5.79122         9.62492         1.54163
H          5.61052         8.71988         1.88168
O         10.16894        13.75739         1.21301
H         10.26860        12.77549         1.28046
O         19.68975        12.62447        -1.91955
H         20.00604        12.21790        -2.75263
O          7.16722        18.59480        -1.10702
H          7.95088        18.17800        -1.52674
O         13.88882         6.88057        -1.21316
H         12.30064         7.26948        -2.18929
O         18.71523         9.91691        -1.54254
H         19.20016         9.43608        -2.24748
H          0.84789         1.47350        -2.21490
H          0.46037         3.83650        -1.56133
H          2.72592         0.16219        -1.32589
H          0.17883         5.93029        -0.99069
H          0.19803         8.31282        -0.77272
H          0.24359        10.15567         0.29100
H          0.00597        12.52147         0.20354
H          0.82754        14.80060        -0.87999
H          0.88798        17.24801        -0.44144
H          1.58947        19.13484         1.41447
H          5.00191         0.12533         0.12020
H          3.75001        20.30206         1.37627
H          7.41621         0.16161        -0.17269
H          6.12174        20.28733         0.96790
H          9.87268         0.25654        -0.06233
H          8.62134        20.27307         1.02069
H         12.29313         0.28112         0.62707
H         11.06496        20.40479         0.25596
H         14.62936         0.28746         1.31377
H         13.58381        20.29661         0.60277
H         17.11610         0.23279         1.43798
H         16.08188        20.35763         0.42563
H         19.65890         0.52467         2.31523
H         18.51632        20.42137         0.21353
H         21.81863         1.55528         1.76894
H         22.51545         2.77713        -0.68962
H         22.24826         4.88497        -2.01677
H         22.24336         8.30248        -2.58047
H         22.58675        10.68808        -1.95097
H         22.68635        12.66897        -1.76856
H         22.94367        14.96430        -1.01537
H         23.30999        16.82905        -0.02069
H         21.00680        20.47877        -0.12157
H         23.14973        19.24581        -0.41757
