         324
 CSIRO Nanostructure Databank - Neutral Graphene Oxide Data Set
C         30.42004        57.23770         0.09008
C         30.44045        58.65147         0.09739
C         29.23866        59.41637         0.05244
C         30.50893        61.48093         0.17401
C         29.28432        60.80284         0.08571
C         32.73687        52.90802        -0.15608
C         32.79097        54.30735        -0.06380
C         31.60931        55.06983         0.12085
C         32.86752        57.19248         0.21025
C         31.61811        56.49551         0.15103
C         32.91028        58.58946         0.20570
C         31.69390        59.33744         0.16041
C         32.98044        61.43789         0.32931
C         31.72372        60.76687         0.21578
C         35.25038        48.60376        -0.47870
C         35.21980        50.01608        -0.50904
C         33.99622        50.69359        -0.41596
C         35.24626        52.91707        -0.72929
C         33.88074        52.12998        -0.59028
C         35.25721        54.33556        -0.32305
C         34.07493        54.99866        -0.08497
C         35.37858        57.14507         0.13794
C         34.11813        56.39709         0.48217
C         35.37772        58.57692         0.24050
C         34.18615        59.28683         0.29338
C         35.43691        61.42124         0.44550
C         34.18602        60.73831         0.37348
C         37.70350        44.22148        -0.26247
C         37.66647        45.70907        -0.01677
C         36.43050        46.46636        -0.39180
C         37.70548        48.59211        -0.16127
C         36.45776        47.86085        -0.36116
C         37.72073        50.03491        -0.24852
C         36.48566        50.75270        -0.53101
C         37.74061        52.88892        -0.63386
C         36.48288        52.13478        -0.58686
C         37.73555        54.34279        -0.41483
C         36.53891        55.03051        -0.26756
C         37.74662        57.21646        -0.70343
C         36.54105        56.47255        -0.16505
C         37.90287        58.63173        -0.16146
C         36.70141        59.23768         0.53322
C         37.88813        61.39769         0.47716
C         36.65076        60.73785         0.42770
C         40.16500        40.02511         0.19794
C         40.14304        41.45347         0.22915
C         38.97206        42.11259        -0.17332
C         40.10613        44.26670        -0.90856
C         38.88067        43.53335        -0.41755
C         40.19565        45.74923        -0.57736
C         38.90131        46.46718        -0.45439
C         40.17027        48.55521         0.10614
C         38.92944        47.90159        -0.09365
C         40.02974        49.93931         0.69238
C         38.91890        50.70780        -0.00793
C         40.21217        52.93111         0.05764
C         39.04054        52.12596        -0.33358
C         40.24852        54.29267        -0.16609
C         39.01154        55.04536        -0.42408
C         40.26316        57.13167        -0.99423
C         39.02028        56.41372        -0.56316
C         40.31131        58.60282        -0.61190
C         39.09908        59.33306        -0.25092
C         40.26418        61.50710         0.59009
C         39.12225        60.74443         0.24629
C         42.56832        35.63827         0.14789
C         42.20302        36.88296         0.62537
C         41.18801        37.81357         0.24183
C         42.62487        39.94625         0.38931
C         41.31193        39.22433         0.36386
C         42.64850        41.46079         0.35427
C         41.36841        42.18854         0.55723
C         42.65101        44.34986         0.78409
C         41.42692        43.50218         0.98149
C         42.57432        45.73254         0.22780
C         41.43701        46.43300        -0.13200
C         42.63686        48.57503         0.39715
C         41.42092        47.88666         0.07571
C         42.67942        49.97644         0.99355
C         41.33159        50.73708         0.87256
C         42.67435        52.98644         0.75974
C         41.36833        52.22442         0.64467
C         42.69086        54.40436         0.32344
C         41.52116        55.01108        -0.10128
C         42.84966        57.14997        -0.53890
C         41.56644        56.37622        -0.68827
C         42.82534        58.62737        -0.54840
C         41.54821        59.22125        -0.79119
C         42.81788        61.50675         0.60080
C         41.56158        61.24496         0.09309
C         45.12111        32.90229         0.43900
C         43.91465        33.61443         0.34196
C         45.11709        35.72397         0.59899
C         43.86034        35.01452         0.44126
C         45.23400        37.15319         0.62325
C         44.08691        37.96500         0.96190
C         45.12315        39.98532         0.12106
C         43.92909        39.26994         0.61743
C         45.19955        41.40147         0.60150
C         43.88764        42.09607         0.99523
C         45.19457        44.27270         0.30914
C         43.96633        43.62196         0.80863
C         45.16073        45.71190         0.00544
C         43.85315        46.46384         0.02064
C         45.13002        48.61590         0.13848
C         43.87555        47.92759         0.21607
C         45.17343        50.05007         0.23709
C         43.84163        50.78570         0.31242
C         45.30100        52.93580         0.89440
C         43.95540        52.21167         0.85856
C         45.20469        54.38519         0.46831
C         43.98477        55.07762         0.26507
C         45.24751        57.18871        -0.01399
C         44.03444        56.46435        -0.01416
C         45.24028        58.64752        -0.09887
C         43.99065        59.36544        -0.21866
C         45.21637        61.43092         0.35442
C         43.99814        60.78745         0.15987
C         46.32796        33.57599         0.51253
C         47.59282        35.68970         0.40277
C         46.34942        34.99710         0.52626
C         47.64632        37.05908         0.17000
C         46.43090        37.78935         0.22992
C         47.70391        39.97053        -0.25032
C         46.39823        39.22770        -0.11583
C         47.71067        41.46801        -0.05931
C         46.47210        42.14801         0.44441
C         47.65077        44.31757         0.20016
C         46.42661        43.62413         0.32987
C         47.66583        45.75200         0.09897
C         46.41484        46.48367         0.06050
C         47.60193        48.59793        -0.40796
C         46.35679        47.87399        -0.05212
C         47.60090        50.12058        -0.50847
C         46.36362        50.77455         0.08521
C         47.65072        52.88637         0.11552
C         46.44077        52.19431         0.23520
C         47.69020        54.32472         0.34098
C         46.42481        55.07615         0.35524
C         47.77483        57.15202        -0.07410
C         46.44870        56.46867         0.13438
C         47.71483        58.64121         0.15707
C         46.46482        59.33297         0.07324
C         47.67505        61.46321         0.35557
C         46.46891        60.76896         0.23186
C         48.96876        37.72986        -0.18173
C         50.13774        39.95728         0.06149
C         48.97974        39.24850        -0.06058
C         50.19048        41.41951         0.17750
C         48.96321        42.13285         0.30014
C         50.21384        44.32770         0.47341
C         48.90687        43.58168         0.47413
C         50.14679        45.66442        -0.24845
C         48.88658        46.42810         0.05245
C         50.15404        48.60670        -0.00933
C         48.90912        47.86423        -0.24519
C         50.13160        50.03394         0.06652
C         48.91000        50.76190        -0.06809
C         50.14390        52.86694         0.16869
C         48.91614        52.16879         0.02206
C         50.16268        54.36675         0.00231
C         48.87918        55.00398         0.44919
C         50.17546        57.19597         0.62691
C         48.85304        56.48040         0.77597
C         50.16132        58.61307         0.56105
C         48.90615        59.32913         0.37024
C         50.13495        61.46236         0.48494
C         48.91693        60.77586         0.40820
C         51.40922        42.09750         0.15335
C         52.64399        44.32646        -0.19540
C         51.54570        43.56366         0.49343
C         52.64000        45.73750        -0.18444
C         51.40325        46.45617        -0.06870
C         52.61441        48.56026         0.18560
C         51.38152        47.86692         0.06884
C         52.60371        49.96520         0.71774
C         51.34160        50.73891         0.35619
C         52.57087        52.89279         0.72433
C         51.33412        52.14502         0.38532
C         52.61497        54.36199         0.59837
C         51.41232        55.06157         0.49979
C         52.64432        57.17041         0.83733
C         51.41455        56.48115         0.66182
C         52.59386        58.63480         1.19699
C         51.36016        59.33698         0.70167
C         52.60086        61.45298         0.60806
C         51.37311        60.76614         0.60402
C         53.83670        46.49406        -0.32599
C         55.04125        48.64826        -0.23343
C         53.84087        47.89407        -0.11561
C         55.04338        50.05881        -0.05227
C         53.86135        50.71478         0.36619
C         55.10974        52.91892         0.39322
C         53.90510        52.13735         0.66192
C         55.10137        54.32789         0.53490
C         53.86380        55.04618         0.69656
C         55.14478        57.16354         0.86316
C         53.87906        56.47163         0.79626
C         55.12685        58.63778         1.02860
C         53.86376        59.36559         0.87327
C         55.05923        61.46243         0.35904
C         53.85096        60.75561         0.65449
C         56.23715        50.82034        -0.23222
C         57.47261        52.96428        -0.23977
C         56.28369        52.21954        -0.02948
C         57.51438        54.35233        -0.02431
C         56.32016        55.05691         0.38687
C         57.65089        57.15915         0.52822
C         56.34028        56.46408         0.62381
C         57.68802        58.68338         0.54341
C         56.41750        59.43285         0.80327
C         57.44306        61.45081        -0.23410
C         56.30397        60.82136         0.29754
C         58.70520        55.07488        -0.30831
C         59.91457        57.19765        -0.51571
C         58.78412        56.46433        -0.12841
C         59.91575        58.62496        -0.58533
C         58.76965        59.36255        -0.18526
C         59.76816        61.40561        -1.08369
C         58.66234        60.74973        -0.48403
C         61.00584        59.32304        -1.17150
C         60.92881        60.69614        -1.39539
O         39.49739        46.32338        -1.77327
O         47.69857        40.88360        -1.40098
O         45.50605        39.61398        -1.23094
O         41.06947        51.65346         1.98699
O         49.53620        44.20663         1.73257
O         40.89095        43.76825        -1.69462
O         58.10066        57.90098         1.70670
O         43.04397        37.35185         1.65786
O         34.45537        52.60570        -1.87465
O         44.43352        46.01535        -1.26951
O         41.55235        60.56803        -1.14005
O         53.21931        52.46117         1.95505
O         42.47589        56.49119        -1.84117
O         42.79862        40.74643        -0.87962
O         48.27245        48.06201        -1.61024
O         46.12681        41.55322         1.75065
O         43.48603        44.35206         2.01074
O         38.62364        52.44920        -1.71208
O         43.25241        52.60581         2.07012
O         55.91955        59.21180         2.13966
O         37.76046        45.79355         1.46465
H         36.90554        45.48705         1.83492
O         52.48788        58.67932         2.68361
H         51.58771        58.36632         2.91707
O         34.14507        56.21207         1.95088
H         33.30181        55.77618         2.19999
O         48.17969        56.92594        -1.46387
H         47.48878        57.30473        -2.04782
O         43.68002        41.83298         2.39721
H         44.51401        42.06874         2.86313
O         36.93738        58.95601         1.96851
H         36.11356        59.18344         2.45047
O         39.53403        49.66768         2.04461
H         39.74850        50.46243         2.58650
O         50.19005        54.61148        -1.45888
H         49.64296        55.41457        -1.63582
O         50.03537        37.15147         0.57310
H         49.86030        37.30157         1.52431
O         40.37797        44.10182         1.61588
H         40.64503        44.97283         1.97329
O         40.14112        57.16875        -2.46209
H         41.06059        57.06514        -2.81714
O         42.97869        49.81948         2.38767
H         42.74347        50.67357         2.82133
O         37.46711        57.36501        -2.13485
H         38.33783        57.41293        -2.60182
O         43.43236        50.99181        -1.07420
H         43.74307        50.23293        -1.61305
O         48.44667        56.63171         2.16721
H         49.01546        56.05475         2.71808
O         52.58892        49.81799         2.19007
H         52.73384        50.72518         2.55613
O         47.48637        50.45205        -1.92992
H         47.95418        49.73249        -2.41739
O         51.98142        43.52715         1.90127
H         51.15337        43.60163         2.43858
O         45.72061        52.97456         2.29601
H         44.90622        53.13710         2.82720
O         50.06783        45.29091        -1.67259
H         49.76245        46.08105        -2.16960
H         29.45695        56.70911         0.03335
H         28.27283        58.89433        -0.00539
H         30.52616        62.57948         0.21423
H         28.34944        61.37989         0.05090
H         31.80872        52.38384         0.11525
H         30.64009        54.54910         0.11542
H         32.99281        62.53729         0.37642
H         34.29828        48.05479        -0.53628
H         33.09225        50.12367        -0.15323
H         35.43936        62.52217         0.46094
H         36.80333        43.66090         0.04547
H         35.47519        45.93731        -0.52695
H         37.90162        62.48555         0.64816
H         39.20859        39.51383         0.00238
H         38.05196        41.51429        -0.27827
H         40.11693        62.35982         1.27136
H         41.89713        35.09226        -0.53289
H         40.24409        37.42566        -0.17496
H         42.94230        62.23268         1.41823
H         45.10468        31.80417         0.39958
H         42.97837        33.05800         0.19040
H         45.21439        62.49188         0.64507
H         47.27819        33.02330         0.50643
H         48.52449        35.10483         0.38623
H         47.66350        62.55980         0.44141
H         49.18541        37.49150        -1.26131
H         51.09087        39.41018         0.12750
H         50.13986        62.56233         0.46620
H         52.34076        41.51519         0.08341
H         53.58932        43.79827        -0.39375
H         52.60745        62.54674         0.49379
H         54.78796        45.97356        -0.50984
H         55.97671        48.13715        -0.50014
H         54.98921        62.51961         0.06283
H         57.15622        50.29668        -0.53279
H         58.38068        52.44395        -0.57690
H         57.37230        62.50639        -0.53656
H         59.56963        54.53401        -0.72112
H         60.78345        56.65520        -0.91807
H         59.70290        62.48174        -1.29774
H         61.90779        58.76514        -1.46056
H         61.78121        61.22205        -1.84787
